@<TRIPOS>MOLECULE
3R134
127   129    1
SMALL
USER_CHARGES


@<TRIPOS>ATOM
      1 CA         37.1609  -46.8189  -53.6299 C.3       0 UNK        -0.1968 
      2 C          35.6446  -46.8539  -53.7433 C.2       0 UNK         0.4852 
      3 O          35.1165  -47.4922  -54.6539 O.2       0 UNK        -0.5359 
      4 N          34.9420  -46.1664  -52.8345 N.am      1 UNK        -0.4300 
      5 CA         33.4789  -46.1246  -52.7798 C.3       1 UNK         0.0863 
      6 C6         32.9355  -44.8924  -52.0076 C.3       11 UNK        -0.0953 
      7 S7         33.6131  -43.3108  -52.6128 S.3       11 UNK        -0.2369 
      8 C8         32.1205  -42.4398  -53.1957 C.3       11 UNK         0.0226 
      9 C9         31.5659  -42.9805  -54.5099 C.ar      11 UNK        -0.0699 
     10 C10        32.4138  -43.2381  -55.5928 C.ar      11 UNK        -0.0804 
     11 C11        31.8991  -43.6891  -56.8113 C.ar      11 UNK        -0.0871 
     12 C12        30.5203  -43.8668  -56.9487 C.ar      11 UNK        -0.1008 
     13 C13        29.6584  -43.6031  -55.8805 C.ar      11 UNK        -0.0735 
     14 C14        30.1877  -43.1660  -54.6619 C.ar      11 UNK        -0.0945 
     15 C15        28.1582  -43.7895  -56.0492 C.3       11 UNK         0.0169 
     16 S16        27.4803  -42.6017  -57.2559 S.3       11 UNK        -0.2669 
     17 C17        25.9764  -41.9824  -56.4184 C.3       11 UNK        -0.0850 
     18 CA         24.6693  -42.6825  -56.8742 C.3       10 UNK         0.0855 
     19 C          24.2530  -42.2944  -58.3258 C.2       10 UNK         0.5543 
     20 N          24.1088  -43.2286  -59.2594 N.am      10 UNK        -0.7343 
     21 O          24.0396  -41.1169  -58.6045 O.2       10 UNK        -0.5027 
     22 N          24.7257  -44.1259  -56.6124 N.am      10 UNK        -0.4495 
     23 C          23.6660  -44.9251  -56.4516 C.2       10 UNK         0.4903 
     24 O          22.5040  -44.5191  -56.3973 O.2       10 UNK        -0.4860 
     25 CA         23.9660  -46.4322  -56.3320 C.3       9 UNK         0.0227 
     26 CB         22.7515  -47.3102  -56.7007 C.3       9 UNK        -0.1964 
     27 N          25.1569  -46.8647  -57.0786 N.am      9 UNK        -0.4231 
     28 C          25.3702  -46.7658  -58.4034 C.2       9 UNK         0.5014 
     29 O          24.6037  -46.1840  -59.1726 O.2       9 UNK        -0.5270 
     30 CA         26.6534  -47.4016  -58.9819 C.3       8 UNK         0.0284 
     31 CB         27.6405  -46.3100  -59.4289 C.3       8 UNK        -0.1977 
     32 N          27.3320  -48.3170  -58.0590 N.am      8 UNK        -0.4342 
     33 C          26.8354  -49.4943  -57.6438 C.2       8 UNK         0.5039 
     34 O          25.8226  -50.0074  -58.1208 O.2       8 UNK        -0.5547 
     35 CA         27.5447  -50.2042  -56.4712 C.3       7 UNK         0.0281 
     36 CB         28.3242  -51.4274  -56.9786 C.3       7 UNK        -0.1963 
     37 N          28.4421  -49.3395  -55.6948 N.am      7 UNK        -0.4444 
     38 C          28.0705  -48.2291  -55.0351 C.2       7 UNK         0.5104 
     39 O          26.8990  -47.8628  -54.9351 O.2       7 UNK        -0.5100 
     40 CA         29.1798  -47.3287  -54.4551 C.3       6 UNK         0.0396 
     41 CB         29.2437  -47.4788  -52.9279 C.3       6 UNK        -0.1801 
     42 N          30.5107  -47.5424  -55.0405 N.am      6 UNK        -0.4747 
     43 C          30.8095  -47.4135  -56.3448 C.2       6 UNK         0.5012 
     44 O          29.9765  -47.0773  -57.1890 O.2       6 UNK        -0.5003 
     45 CA         32.2258  -47.8315  -56.8093 C.3       5 UNK         0.0782 
     46 C46        33.1702  -46.6275  -57.0453 C.3       11 UNK        -0.0868 
     47 S47        32.7619  -45.6935  -58.5594 S.3       11 UNK        -0.2515 
     48 C48        32.8356  -43.9666  -57.9804 C.3       11 UNK         0.0199 
     49 N          32.8635  -48.8463  -55.9582 N.am      5 UNK        -0.4607 
     50 C          32.3818  -50.0801  -55.7523 C.2       4 UNK         0.5031 
     51 O          31.2797  -50.4502  -56.1571 O.2       4 UNK        -0.5119 
     52 CA         33.2458  -51.0799  -54.9757 C.3       4 UNK         0.0263 
     53 CB         34.7466  -50.7367  -54.8985 C.3       4 UNK        -0.1967 
     54 N          32.6989  -51.2302  -53.6334 N.am      4 UNK        -0.4237 
     55 C          32.7258  -52.3604  -52.9159 C.2       3 UNK         0.4908 
     56 O          33.1912  -53.4207  -53.3388 O.2       3 UNK        -0.5102 
     57 CA         32.1238  -52.3131  -51.4943 C.3       3 UNK         0.0241 
     58 CB         32.8161  -53.2975  -50.5264 C.3       3 UNK        -0.1971 
     59 N          32.0620  -50.9662  -50.9087 N.am      3 UNK        -0.4139 
     60 C          33.0896  -50.1444  -50.6462 C.2       2 UNK         0.5016 
     61 O          34.2766  -50.4171  -50.8377 O.2       2 UNK        -0.5319 
     62 CA         32.7149  -48.7662  -50.0790 C.3       2 UNK         0.0286 
     63 CB         33.2228  -48.6142  -48.6356 C.3       2 UNK        -0.1963 
     64 N          33.2300  -47.6615  -50.8913 N.am      2 UNK        -0.4790 
     65 C          32.9401  -47.4383  -52.1824 C.2       1 UNK         0.5024 
     66 O          32.2770  -48.2057  -52.8827 O.2       1 UNK        -0.4888 
     67 H67        37.4941  -46.2102  -52.7896 H         1 UNK         0.0892 
     68 H68        37.5942  -46.4073  -54.5409 H         1 UNK         0.0892 
     69 H69        37.5480  -47.8283  -53.4936 H         1 UNK         0.0892 
     70 H70        35.4265  -45.6385  -52.1230 H         1 UNK         0.3107 
     71 H71        33.1007  -46.0541  -53.8016 H         1 UNK         0.0773 
     72 H72        31.8458  -44.8650  -52.0686 H         1 UNK         0.0680 
     73 H73        33.1766  -44.9518  -50.9450 H         1 UNK         0.0680 
     74 H74        31.3646  -42.4690  -52.4093 H         1 UNK         0.0650 
     75 H75        32.3715  -41.3883  -53.3398 H         1 UNK         0.0650 
     76 H76        33.4785  -43.0818  -55.4858 H         1 UNK         0.1397 
     77 H77        30.1156  -44.2152  -57.8895 H         1 UNK         0.1363 
     78 H78        29.5238  -42.9534  -53.8352 H         1 UNK         0.1355 
     79 H79        27.6543  -43.6933  -55.0868 H         1 UNK         0.0707 
     80 H80        27.9593  -44.8044  -56.3948 H         1 UNK         0.0707 
     81 H81        25.9091  -40.9073  -56.5958 H         1 UNK         0.1034 
     82 H82        26.0881  -42.0786  -55.3378 H         1 UNK         0.1034 
     83 H83        23.8746  -42.2805  -56.2426 H         1 UNK         0.0482 
     84 H84        24.2723  -44.2088  -59.0554 H         1 UNK         0.3460 
     85 H85        23.8326  -42.9535  -60.1881 H         1 UNK         0.3460 
     86 H86        25.6386  -44.5477  -56.6814 H         1 UNK         0.2989 
     87 H87        24.1925  -46.6102  -55.2798 H         1 UNK         0.0559 
     88 H88        22.9813  -48.3703  -56.5926 H         1 UNK         0.0848 
     89 H89        22.4282  -47.1406  -57.7284 H         1 UNK         0.0848 
     90 H90        21.9005  -47.0972  -56.0526 H         1 UNK         0.0848 
     91 H91        25.8630  -47.3266  -56.5113 H         1 UNK         0.3144 
     92 H92        26.3577  -47.9741  -59.8634 H         1 UNK         0.0727 
     93 H93        28.5227  -46.7417  -59.9020 H         1 UNK         0.0790 
     94 H94        27.9784  -45.7007  -58.5910 H         1 UNK         0.0790 
     95 H95        27.1804  -45.6376  -60.1543 H         1 UNK         0.0790 
     96 H96        28.1977  -47.9793  -57.6471 H         1 UNK         0.3215 
     97 H97        26.7649  -50.5542  -55.7916 H         1 UNK         0.0863 
     98 H98        28.7865  -51.9748  -56.1569 H         1 UNK         0.0808 
     99 H99        29.1123  -51.1403  -57.6760 H         1 UNK         0.0808 
    100 H100       27.6651  -52.1225  -57.5005 H         1 UNK         0.0808 
    101 H101       29.4315  -49.5627  -55.7454 H         1 UNK         0.3118 
    102 H102       28.8978  -46.2982  -54.6744 H         1 UNK         0.0546 
    103 H103       28.2646  -47.3127  -52.4765 H         1 UNK         0.0828 
    104 H104       29.9249  -46.7517  -52.4868 H         1 UNK         0.0828 
    105 H105       29.5726  -48.4761  -52.6341 H         1 UNK         0.0828 
    106 H106       31.2373  -47.8601  -54.4036 H         1 UNK         0.3005 
    107 H107       32.0790  -48.3206  -57.7752 H         1 UNK         0.1257 
    108 H108       34.1951  -46.9791  -57.1733 H         1 UNK         0.0775 
    109 H109       33.1929  -45.9759  -56.1721 H         1 UNK         0.0775 
    110 H110       33.8680  -43.7313  -57.7169 H         1 UNK         0.0840 
    111 H111       32.5736  -43.3062  -58.8080 H         1 UNK         0.0840 
    112 H112       33.7430  -48.5734  -55.5245 H         1 UNK         0.2987 
    113 H113       33.1490  -52.0245  -55.5155 H         1 UNK         0.0785 
    114 H114       34.9424  -49.9562  -54.1646 H         1 UNK         0.0798 
    115 H115       35.1407  -50.4099  -55.8617 H         1 UNK         0.0798 
    116 H116       35.3250  -51.6097  -54.5962 H         1 UNK         0.0798 
    117 H117       32.3021  -50.3910  -53.2257 H         1 UNK         0.3079 
    118 H118       31.0885  -52.6392  -51.6046 H         1 UNK         0.0794 
    119 H119       33.8793  -53.0797  -50.4203 H         1 UNK         0.0786 
    120 H120       32.7297  -54.3252  -50.8817 H         1 UNK         0.0786 
    121 H121       32.3657  -53.2623  -49.5345 H         1 UNK         0.0786 
    122 H122       31.1281  -50.6294  -50.7177 H         1 UNK         0.3032 
    123 H123       31.6265  -48.6740  -50.0645 H         1 UNK         0.1094 
    124 H124       32.8976  -47.6713  -48.1953 H         1 UNK         0.0794 
    125 H125       32.8406  -49.4151  -48.0009 H         1 UNK         0.0794 
    126 H126       34.3120  -48.6516  -48.5853 H         1 UNK         0.0794 
    127 H127       33.8283  -47.0029  -50.4152 H         1 UNK         0.3016 
@<TRIPOS>BOND
     1    1    2 1    
     2    1   67 1    
     3    1   68 1    
     4    1   69 1    
     5    2    3 2    
     6    2    4 am   BACKBONE|DICT|INTERRES
     7    4    5 1    
     8    4   70 1    
     9    5    6 1    
    10    5   65 1    
    11    5   71 1    
    12    6    7 1    
    13    6   72 1    
    14    6   73 1    
    15    7    8 1    
    16    8    9 1    
    17    8   74 1    
    18    8   75 1    
    19    9   10 ar   
    20    9   14 ar   
    21   10   11 ar   
    22   10   76 1    
    23   11   12 ar   
    24   11   48 1    
    25   12   13 ar   
    26   12   77 1    
    27   13   14 ar   
    28   13   15 1    
    29   14   78 1    
    30   15   16 1    
    31   15   79 1    
    32   15   80 1    
    33   16   17 1    
    34   17   18 1    
    35   17   81 1    
    36   17   82 1    
    37   18   19 1    
    38   18   22 1    
    39   18   83 1    
    40   19   20 am   BACKBONE|DICT|INTERRES
    41   19   21 2    
    42   20   84 1    
    43   20   85 1    
    44   22   23 am   BACKBONE|DICT|INTERRES
    45   22   86 1    
    46   23   24 2    
    47   23   25 1    
    48   25   26 1    
    49   25   27 1    
    50   25   87 1    
    51   26   88 1    
    52   26   89 1    
    53   26   90 1    
    54   27   28 am   BACKBONE|DICT|INTERRES
    55   27   91 1    
    56   28   29 2    
    57   28   30 1    
    58   30   31 1    
    59   30   32 1    
    60   30   92 1    
    61   31   93 1    
    62   31   94 1    
    63   31   95 1    
    64   32   33 am   BACKBONE|DICT|INTERRES
    65   32   96 1    
    66   33   34 2    
    67   33   35 1    
    68   35   36 1    
    69   35   37 1    
    70   35   97 1    
    71   36   98 1    
    72   36   99 1    
    73   36  100 1    
    74   37   38 am   BACKBONE|DICT|INTERRES
    75   37  101 1    
    76   38   39 2    
    77   38   40 1    
    78   40   41 1    
    79   40   42 1    
    80   40  102 1    
    81   41  103 1    
    82   41  104 1    
    83   41  105 1    
    84   42   43 am   BACKBONE|DICT|INTERRES
    85   42  106 1    
    86   43   44 2    
    87   43   45 1    
    88   45   46 1    
    89   45   49 1    
    90   45  107 1    
    91   46   47 1    
    92   46  108 1    
    93   46  109 1    
    94   47   48 1    
    95   48  110 1    
    96   48  111 1    
    97   49   50 am   BACKBONE|DICT|INTERRES
    98   49  112 1    
    99   50   51 2    
   100   50   52 1    
   101   52   53 1    
   102   52   54 1    
   103   52  113 1    
   104   53  114 1    
   105   53  115 1    
   106   53  116 1    
   107   54   55 am   BACKBONE|DICT|INTERRES
   108   54  117 1    
   109   55   56 2    
   110   55   57 1    
   111   57   58 1    
   112   57   59 1    
   113   57  118 1    
   114   58  119 1    
   115   58  120 1    
   116   58  121 1    
   117   59   60 am   BACKBONE|DICT|INTERRES
   118   59  122 1    
   119   60   61 2    
   120   60   62 1    
   121   62   63 1    
   122   62   64 1    
   123   62  123 1    
   124   63  124 1    
   125   63  125 1    
   126   63  126 1    
   127   64   65 am   BACKBONE|DICT|INTERRES
   128   64  127 1    
   129   65   66 2    
@<TRIPOS>SUBSTRUCTURE
     1 UNK         1 GROUP             0       ****    0 ROOT    
