@<TRIPOS>MOLECULE
3R134
127   129    1
SMALL
USER_CHARGES


@<TRIPOS>ATOM
      1 CA         36.0194  -43.1266  -50.6625 C.3       0 UNK        -0.1968 
      2 C          36.1501  -43.1250  -52.1785 C.2       0 UNK         0.4852 
      3 O          36.4416  -42.0824  -52.7665 O.2       0 UNK        -0.5359 
      4 N          35.9360  -44.2818  -52.8116 N.am      1 UNK        -0.4300 
      5 CA         36.0174  -44.4963  -54.2548 C.3       1 UNK         0.0863 
      6 C6         34.7980  -43.9177  -55.0277 C.3       11 UNK        -0.0953 
      7 S7         33.1900  -44.6492  -54.5637 S.3       11 UNK        -0.2369 
      8 C8         32.4796  -43.3183  -53.5496 C.3       11 UNK         0.0226 
      9 C9         31.1166  -43.7193  -53.0110 C.ar      11 UNK        -0.0699 
     10 C10        30.9893  -44.2470  -51.7232 C.ar      11 UNK        -0.0804 
     11 C11        29.7359  -44.6292  -51.2337 C.ar      11 UNK        -0.0871 
     12 C12        28.6057  -44.4845  -52.0446 C.ar      11 UNK        -0.1008 
     13 C13        28.7266  -43.9791  -53.3428 C.ar      11 UNK        -0.0735 
     14 C14        29.9808  -43.5765  -53.8109 C.ar      11 UNK        -0.0945 
     15 C15        27.5071  -43.8812  -54.2473 C.3       11 UNK         0.0169 
     16 S16        27.0870  -45.4874  -55.0001 S.3       11 UNK        -0.2669 
     17 C17        28.4934  -45.7646  -56.1344 C.3       11 UNK        -0.0850 
     18 CA         28.2294  -45.2117  -57.5591 C.3       10 UNK         0.0855 
     19 C          29.5347  -45.2018  -58.4083 C.2       10 UNK         0.5543 
     20 N          29.6202  -45.9077  -59.5304 N.am      10 UNK        -0.7343 
     21 O          30.4895  -44.5198  -58.0460 O.2       10 UNK        -0.5027 
     22 N          27.0977  -45.8931  -58.2050 N.am      10 UNK        -0.4495 
     23 C          26.3599  -45.3711  -59.1950 C.2       10 UNK         0.4903 
     24 O          26.4786  -44.2087  -59.5871 O.2       10 UNK        -0.4860 
     25 CA         25.3192  -46.2973  -59.8663 C.3       9 UNK         0.0227 
     26 CB         24.9801  -45.8606  -61.3076 C.3       9 UNK        -0.1964 
     27 N          25.6830  -47.7208  -59.8322 N.am      9 UNK        -0.4231 
     28 C          26.8050  -48.2846  -60.3080 C.2       9 UNK         0.5014 
     29 O          27.6639  -47.6658  -60.9398 O.2       9 UNK        -0.5270 
     30 CA         27.0265  -49.7778  -59.9743 C.3       8 UNK         0.0284 
     31 CB         28.5235  -50.1566  -59.9906 C.3       8 UNK        -0.1977 
     32 N          26.4158  -50.2193  -58.7072 N.am      8 UNK        -0.4342 
     33 C          26.5989  -49.6750  -57.4948 C.2       8 UNK         0.5039 
     34 O          27.2592  -48.6539  -57.2932 O.2       8 UNK        -0.5547 
     35 CA         25.9193  -50.3783  -56.3160 C.3       7 UNK         0.0281 
     36 CB         26.7551  -51.5761  -55.8360 C.3       7 UNK        -0.1963 
     37 N          25.7853  -49.4185  -55.2254 N.am      7 UNK        -0.4444 
     38 C          24.7450  -49.3247  -54.3910 C.2       7 UNK         0.5104 
     39 O          23.7779  -50.0884  -54.4212 O.2       7 UNK        -0.5100 
     40 CA         24.7856  -48.1742  -53.3627 C.3       6 UNK         0.0396 
     41 CB         23.8171  -48.3881  -52.1798 C.3       6 UNK        -0.1801 
     42 N          26.1387  -47.8635  -52.8837 N.am      6 UNK        -0.4747 
     43 C          26.9662  -48.6786  -52.2131 C.2       6 UNK         0.5012 
     44 O          26.6809  -49.8277  -51.8675 O.2       6 UNK        -0.5003 
     45 CA         28.3455  -48.0994  -51.8405 C.3       5 UNK         0.0782 
     46 C46        28.3700  -47.7016  -50.3436 C.3       11 UNK        -0.0868 
     47 S47        29.9619  -46.9892  -49.8047 S.3       11 UNK        -0.2515 
     48 C48        29.6136  -45.2016  -49.8297 C.3       11 UNK         0.0199 
     49 N          29.4174  -49.0341  -52.1920 N.am      5 UNK        -0.4607 
     50 C          29.7389  -49.3621  -53.4477 C.2       4 UNK         0.5031 
     51 O          29.1420  -48.9402  -54.4404 O.2       4 UNK        -0.5119 
     52 CA         30.9196  -50.3293  -53.6278 C.3       4 UNK         0.0263 
     53 CB         30.4311  -51.7847  -53.7068 C.3       4 UNK        -0.1967 
     54 N          31.6498  -49.9944  -54.8506 N.am      4 UNK        -0.4237 
     55 C          32.5056  -48.9702  -54.9468 C.2       3 UNK         0.4908 
     56 O          32.9024  -48.3145  -53.9808 O.2       3 UNK        -0.5102 
     57 CA         32.9452  -48.5909  -56.3696 C.3       3 UNK         0.0241 
     58 CB         31.9163  -47.6416  -57.0080 C.3       3 UNK        -0.1971 
     59 N          34.2574  -47.9433  -56.3675 N.am      3 UNK        -0.4139 
     60 C          35.4241  -48.5935  -56.2622 C.2       2 UNK         0.5016 
     61 O          35.5203  -49.8213  -56.2219 O.2       2 UNK        -0.5319 
     62 CA         36.7082  -47.7427  -56.2156 C.3       2 UNK         0.0286 
     63 CB         37.3924  -47.7299  -57.5928 C.3       2 UNK        -0.1963 
     64 N          36.4863  -46.3592  -55.7798 N.am      2 UNK        -0.4790 
     65 C          36.2502  -45.9978  -54.5112 C.2       1 UNK         0.5024 
     66 O          36.2222  -46.7956  -53.5692 O.2       1 UNK        -0.4888 
     67 H67        36.9609  -42.8254  -50.2039 H         1 UNK         0.0892 
     68 H68        35.2476  -42.4227  -50.3523 H         1 UNK         0.0892 
     69 H69        35.7540  -44.1111  -50.2774 H         1 UNK         0.0892 
     70 H70        35.7497  -45.1335  -52.2951 H         1 UNK         0.3107 
     71 H71        36.9165  -43.9884  -54.6107 H         1 UNK         0.0773 
     72 H72        34.7535  -42.8371  -54.8858 H         1 UNK         0.0680 
     73 H73        34.9288  -44.0536  -56.1022 H         1 UNK         0.0680 
     74 H74        32.3902  -42.4116  -54.1499 H         1 UNK         0.0650 
     75 H75        33.1574  -43.0833  -52.7283 H         1 UNK         0.0650 
     76 H76        31.8676  -44.3695  -51.1040 H         1 UNK         0.1397 
     77 H77        27.6347  -44.7854  -51.6756 H         1 UNK         0.1363 
     78 H78        30.0817  -43.1804  -54.8125 H         1 UNK         0.1355 
     79 H79        27.6666  -43.1428  -55.0346 H         1 UNK         0.0707 
     80 H80        26.6521  -43.5289  -53.6684 H         1 UNK         0.0707 
     81 H81        29.3964  -45.3316  -55.7071 H         1 UNK         0.1034 
     82 H82        28.6933  -46.8361  -56.1765 H         1 UNK         0.1034 
     83 H83        27.9568  -44.1608  -57.4448 H         1 UNK         0.0482 
     84 H84        28.8404  -46.4635  -59.8656 H         1 UNK         0.3460 
     85 H85        30.4728  -45.8740  -60.0647 H         1 UNK         0.3460 
     86 H86        26.9793  -46.8700  -57.9466 H         1 UNK         0.2989 
     87 H87        24.4097  -46.2039  -59.2713 H         1 UNK         0.0559 
     88 H88        24.5736  -44.8487  -61.3268 H         1 UNK         0.0848 
     89 H89        24.2330  -46.5151  -61.7562 H         1 UNK         0.0848 
     90 H90        25.8617  -45.8683  -61.9496 H         1 UNK         0.0848 
     91 H91        25.0552  -48.3179  -59.3124 H         1 UNK         0.3144 
     92 H92        26.5325  -50.3394  -60.7684 H         1 UNK         0.0727 
     93 H93        29.0897  -49.5852  -59.2536 H         1 UNK         0.0790 
     94 H94        28.9698  -49.9621  -60.9667 H         1 UNK         0.0790 
     95 H95        28.6682  -51.2155  -59.7767 H         1 UNK         0.0790 
     96 H96        25.8335  -51.0438  -58.7736 H         1 UNK         0.3215 
     97 H97        24.9336  -50.7204  -56.6386 H         1 UNK         0.0863 
     98 H98        26.2861  -52.0718  -54.9859 H         1 UNK         0.0808 
     99 H99        27.7529  -51.2615  -55.5301 H         1 UNK         0.0808 
    100 H100       26.8717  -52.3203  -56.6246 H         1 UNK         0.0808 
    101 H101       26.5329  -48.7344  -55.1810 H         1 UNK         0.3118 
    102 H102       24.4499  -47.2862  -53.9002 H         1 UNK         0.0546 
    103 H103       24.0448  -49.3008  -51.6285 H         1 UNK         0.0828 
    104 H104       22.7868  -48.4695  -52.5280 H         1 UNK         0.0828 
    105 H105       23.8547  -47.5540  -51.4794 H         1 UNK         0.0828 
    106 H106       26.4865  -46.9558  -53.1680 H         1 UNK         0.3005 
    107 H107       28.5117  -47.2006  -52.4376 H         1 UNK         0.1257 
    108 H108       27.5685  -46.9941  -50.1228 H         1 UNK         0.0775 
    109 H109       28.1748  -48.5749  -49.7179 H         1 UNK         0.0775 
    110 H110       28.6264  -45.0007  -49.4108 H         1 UNK         0.0840 
    111 H111       30.3240  -44.7000  -49.1707 H         1 UNK         0.0840 
    112 H112       29.9374  -49.4263  -51.4211 H         1 UNK         0.2987 
    113 H113       31.5916  -50.2341  -52.7717 H         1 UNK         0.0785 
    114 H114       29.8581  -52.0540  -52.8185 H         1 UNK         0.0798 
    115 H115       31.2688  -52.4791  -53.7745 H         1 UNK         0.0798 
    116 H116       29.7892  -51.9513  -54.5717 H         1 UNK         0.0798 
    117 H117       31.3294  -50.4409  -55.6975 H         1 UNK         0.3079 
    118 H118       33.0032  -49.4985  -56.9746 H         1 UNK         0.0794 
    119 H119       32.1975  -47.3731  -58.0263 H         1 UNK         0.0786 
    120 H120       31.8091  -46.7188  -56.4361 H         1 UNK         0.0786 
    121 H121       30.9296  -48.1054  -57.0576 H         1 UNK         0.0786 
    122 H122       34.2657  -46.9350  -56.3274 H         1 UNK         0.3032 
    123 H123       37.3845  -48.2240  -55.5048 H         1 UNK         0.1094 
    124 H124       36.7688  -47.2535  -58.3503 H         1 UNK         0.0794 
    125 H125       38.3451  -47.2009  -57.5585 H         1 UNK         0.0794 
    126 H126       37.6008  -48.7449  -57.9344 H         1 UNK         0.0794 
    127 H127       36.5114  -45.6481  -56.4974 H         1 UNK         0.3016 
@<TRIPOS>BOND
     1    1    2 1    
     2    1   67 1    
     3    1   68 1    
     4    1   69 1    
     5    2    3 2    
     6    2    4 am   BACKBONE|DICT|INTERRES
     7    4    5 1    
     8    4   70 1    
     9    5    6 1    
    10    5   65 1    
    11    5   71 1    
    12    6    7 1    
    13    6   72 1    
    14    6   73 1    
    15    7    8 1    
    16    8    9 1    
    17    8   74 1    
    18    8   75 1    
    19    9   10 ar   
    20    9   14 ar   
    21   10   11 ar   
    22   10   76 1    
    23   11   12 ar   
    24   11   48 1    
    25   12   13 ar   
    26   12   77 1    
    27   13   14 ar   
    28   13   15 1    
    29   14   78 1    
    30   15   16 1    
    31   15   79 1    
    32   15   80 1    
    33   16   17 1    
    34   17   18 1    
    35   17   81 1    
    36   17   82 1    
    37   18   19 1    
    38   18   22 1    
    39   18   83 1    
    40   19   20 am   BACKBONE|DICT|INTERRES
    41   19   21 2    
    42   20   84 1    
    43   20   85 1    
    44   22   23 am   BACKBONE|DICT|INTERRES
    45   22   86 1    
    46   23   24 2    
    47   23   25 1    
    48   25   26 1    
    49   25   27 1    
    50   25   87 1    
    51   26   88 1    
    52   26   89 1    
    53   26   90 1    
    54   27   28 am   BACKBONE|DICT|INTERRES
    55   27   91 1    
    56   28   29 2    
    57   28   30 1    
    58   30   31 1    
    59   30   32 1    
    60   30   92 1    
    61   31   93 1    
    62   31   94 1    
    63   31   95 1    
    64   32   33 am   BACKBONE|DICT|INTERRES
    65   32   96 1    
    66   33   34 2    
    67   33   35 1    
    68   35   36 1    
    69   35   37 1    
    70   35   97 1    
    71   36   98 1    
    72   36   99 1    
    73   36  100 1    
    74   37   38 am   BACKBONE|DICT|INTERRES
    75   37  101 1    
    76   38   39 2    
    77   38   40 1    
    78   40   41 1    
    79   40   42 1    
    80   40  102 1    
    81   41  103 1    
    82   41  104 1    
    83   41  105 1    
    84   42   43 am   BACKBONE|DICT|INTERRES
    85   42  106 1    
    86   43   44 2    
    87   43   45 1    
    88   45   46 1    
    89   45   49 1    
    90   45  107 1    
    91   46   47 1    
    92   46  108 1    
    93   46  109 1    
    94   47   48 1    
    95   48  110 1    
    96   48  111 1    
    97   49   50 am   BACKBONE|DICT|INTERRES
    98   49  112 1    
    99   50   51 2    
   100   50   52 1    
   101   52   53 1    
   102   52   54 1    
   103   52  113 1    
   104   53  114 1    
   105   53  115 1    
   106   53  116 1    
   107   54   55 am   BACKBONE|DICT|INTERRES
   108   54  117 1    
   109   55   56 2    
   110   55   57 1    
   111   57   58 1    
   112   57   59 1    
   113   57  118 1    
   114   58  119 1    
   115   58  120 1    
   116   58  121 1    
   117   59   60 am   BACKBONE|DICT|INTERRES
   118   59  122 1    
   119   60   61 2    
   120   60   62 1    
   121   62   63 1    
   122   62   64 1    
   123   62  123 1    
   124   63  124 1    
   125   63  125 1    
   126   63  126 1    
   127   64   65 am   BACKBONE|DICT|INTERRES
   128   64  127 1    
   129   65   66 2    
@<TRIPOS>SUBSTRUCTURE
     1 UNK         1 GROUP             0       ****    0 ROOT    
