@<TRIPOS>MOLECULE
3R134
127   129    1
SMALL
USER_CHARGES


@<TRIPOS>ATOM
      1 CA         29.2386  -46.1997  -48.5686 C.3       0 UNK        -0.1968 
      2 C          30.7119  -46.1761  -48.9495 C.2       0 UNK         0.4852 
      3 O          31.5717  -46.2959  -48.0748 O.2       0 UNK        -0.5359 
      4 N          31.0065  -46.0141  -50.2460 N.am      1 UNK        -0.4300 
      5 CA         32.3577  -46.0472  -50.8123 C.3       1 UNK         0.0863 
      6 C6         32.3615  -45.5043  -52.2661 C.3       11 UNK        -0.0953 
      7 S7         34.0125  -44.9137  -52.7703 S.3       11 UNK        -0.2369 
      8 C8         33.6775  -43.1862  -53.2487 C.3       11 UNK         0.0226 
      9 C9         32.9337  -43.0705  -54.5753 C.ar      11 UNK        -0.0699 
     10 C10        33.4001  -43.7453  -55.7080 C.ar      11 UNK        -0.0804 
     11 C11        32.7302  -43.6345  -56.9288 C.ar      11 UNK        -0.0871 
     12 C12        31.6217  -42.7903  -57.0308 C.ar      11 UNK        -0.1008 
     13 C13        31.1187  -42.1415  -55.8994 C.ar      11 UNK        -0.0735 
     14 C14        31.7834  -42.2800  -54.6755 C.ar      11 UNK        -0.0945 
     15 C15        29.8433  -41.3144  -55.9943 C.3       11 UNK         0.0169 
     16 S16        28.3510  -42.3670  -55.9683 S.3       11 UNK        -0.2669 
     17 C17        28.2892  -42.9517  -57.6973 C.3       11 UNK        -0.0850 
     18 CA         26.8816  -43.4198  -58.1464 C.3       10 UNK         0.0855 
     19 C          26.8612  -43.6163  -59.6920 C.2       10 UNK         0.5543 
     20 N          26.8455  -44.8365  -60.2118 N.am      10 UNK        -0.7343 
     21 O          26.8621  -42.6350  -60.4313 O.2       10 UNK        -0.5027 
     22 N          26.4179  -44.5791  -57.3641 N.am      10 UNK        -0.4495 
     23 C          25.1797  -45.0868  -57.4008 C.2       10 UNK         0.4903 
     24 O          24.2507  -44.6047  -58.0522 O.2       10 UNK        -0.4860 
     25 CA         24.9462  -46.3579  -56.5627 C.3       9 UNK         0.0227 
     26 CB         23.5522  -46.3490  -55.9097 C.3       9 UNK        -0.1964 
     27 N          25.1143  -47.6244  -57.2888 N.am      9 UNK        -0.4231 
     28 C          26.0406  -47.9676  -58.1981 C.2       9 UNK         0.5014 
     29 O          26.8806  -47.2086  -58.6823 O.2       9 UNK        -0.5270 
     30 CA         26.0738  -49.4582  -58.5692 C.3       8 UNK         0.0284 
     31 CB         26.9688  -49.7494  -59.7886 C.3       8 UNK        -0.1977 
     32 N          26.5836  -50.2037  -57.4218 N.am      8 UNK        -0.4342 
     33 C          25.8439  -50.6327  -56.3923 C.2       8 UNK         0.5039 
     34 O          24.6156  -50.5484  -56.3507 O.2       8 UNK        -0.5547 
     35 CA         26.6155  -51.1763  -55.1842 C.3       7 UNK         0.0281 
     36 CB         27.3131  -52.5074  -55.5138 C.3       7 UNK        -0.1963 
     37 N          27.6026  -50.1926  -54.7369 N.am      7 UNK        -0.4444 
     38 C          27.3365  -49.1730  -53.9082 C.2       7 UNK         0.5104 
     39 O          26.2411  -48.9888  -53.3772 O.2       7 UNK        -0.5100 
     40 CA         28.4855  -48.1941  -53.6103 C.3       6 UNK         0.0396 
     41 CB         29.2595  -48.6449  -52.3657 C.3       6 UNK        -0.1801 
     42 N          29.4131  -48.0553  -54.7354 N.am      6 UNK        -0.4747 
     43 C          29.1651  -47.2920  -55.8118 C.2       6 UNK         0.5012 
     44 O          28.1997  -46.5329  -55.8891 O.2       6 UNK        -0.5003 
     45 CA         30.1534  -47.3479  -56.9993 C.3       5 UNK         0.0782 
     46 C46        31.0425  -46.0856  -56.9708 C.3       11 UNK        -0.0868 
     47 S47        31.9139  -45.7765  -58.5466 S.3       11 UNK        -0.2515 
     48 C48        33.1531  -44.4960  -58.1122 C.3       11 UNK         0.0199 
     49 N          30.9804  -48.5571  -57.0398 N.am      5 UNK        -0.4607 
     50 C          30.5585  -49.8274  -57.0624 C.2       4 UNK         0.5031 
     51 O          29.3766  -50.1571  -57.1520 O.2       4 UNK        -0.5119 
     52 CA         31.6323  -50.9160  -56.8763 C.3       4 UNK         0.0263 
     53 CB         32.0015  -51.5360  -58.2327 C.3       4 UNK        -0.1967 
     54 N          32.8535  -50.4473  -56.2024 N.am      4 UNK        -0.4237 
     55 C          32.9048  -49.9096  -54.9742 C.2       3 UNK         0.4908 
     56 O          31.9182  -49.7538  -54.2486 O.2       3 UNK        -0.5102 
     57 CA         34.2722  -49.3890  -54.5214 C.3       3 UNK         0.0241 
     58 CB         34.5934  -48.0486  -55.2149 C.3       3 UNK        -0.1971 
     59 N          34.2536  -49.2011  -53.0743 N.am      3 UNK        -0.4139 
     60 C          35.3252  -49.1188  -52.2781 C.2       2 UNK         0.5016 
     61 O          36.4835  -49.2430  -52.6819 O.2       2 UNK        -0.5319 
     62 CA         35.0536  -48.8031  -50.7928 C.3       2 UNK         0.0286 
     63 CB         36.3454  -48.6805  -49.9624 C.3       2 UNK        -0.1963 
     64 N          34.2911  -47.5576  -50.6674 N.am      2 UNK        -0.4790 
     65 C          32.9584  -47.4699  -50.7493 C.2       1 UNK         0.5024 
     66 O          32.2270  -48.4577  -50.8446 O.2       1 UNK        -0.4888 
     67 H67        28.5899  -46.0817  -49.4364 H         1 UNK         0.0892 
     68 H68        28.9915  -47.1460  -48.0882 H         1 UNK         0.0892 
     69 H69        29.0186  -45.3941  -47.8687 H         1 UNK         0.0892 
     70 H70        30.2548  -45.9308  -50.9140 H         1 UNK         0.3107 
     71 H71        32.9723  -45.3909  -50.1916 H         1 UNK         0.0773 
     72 H72        32.0171  -46.2561  -52.9798 H         1 UNK         0.0680 
     73 H73        31.6617  -44.6719  -52.3560 H         1 UNK         0.0680 
     74 H74        34.6294  -42.6620  -53.3411 H         1 UNK         0.0650 
     75 H75        33.1309  -42.6916  -52.4442 H         1 UNK         0.0650 
     76 H76        34.2686  -44.3848  -55.6275 H         1 UNK         0.1397 
     77 H77        31.1108  -42.6989  -57.9787 H         1 UNK         0.1363 
     78 H78        31.4026  -41.7724  -53.7998 H         1 UNK         0.1355 
     79 H79        29.8578  -40.6996  -56.8954 H         1 UNK         0.0707 
     80 H80        29.7884  -40.6173  -55.1568 H         1 UNK         0.0707 
     81 H81        29.0044  -43.7643  -57.8252 H         1 UNK         0.1034 
     82 H82        28.6350  -42.1376  -58.3377 H         1 UNK         0.1034 
     83 H83        26.1830  -42.6065  -57.9408 H         1 UNK         0.0482 
     84 H84        26.8564  -45.6564  -59.6060 H         1 UNK         0.3460 
     85 H85        26.8317  -44.9503  -61.2120 H         1 UNK         0.3460 
     86 H86        27.1247  -45.0864  -56.8403 H         1 UNK         0.2989 
     87 H87        25.6711  -46.3597  -55.7486 H         1 UNK         0.0559 
     88 H88        22.7578  -46.4382  -56.6518 H         1 UNK         0.0848 
     89 H89        23.3831  -45.4213  -55.3611 H         1 UNK         0.0848 
     90 H90        23.4410  -47.1676  -55.1982 H         1 UNK         0.0848 
     91 H91        24.5259  -48.3825  -56.9648 H         1 UNK         0.3144 
     92 H92        25.0574  -49.7789  -58.8079 H         1 UNK         0.0727 
     93 H93        26.9512  -50.8081  -60.0477 H         1 UNK         0.0790 
     94 H94        28.0072  -49.4683  -59.6063 H         1 UNK         0.0790 
     95 H95        26.6282  -49.1941  -60.6633 H         1 UNK         0.0790 
     96 H96        27.5995  -50.2540  -57.3425 H         1 UNK         0.3215 
     97 H97        25.8993  -51.3622  -54.3805 H         1 UNK         0.0863 
     98 H98        27.8142  -52.9167  -54.6365 H         1 UNK         0.0808 
     99 H99        28.0584  -52.3999  -56.3025 H         1 UNK         0.0808 
    100 H100       26.5896  -53.2517  -55.8491 H         1 UNK         0.0808 
    101 H101       28.5086  -50.2217  -55.1867 H         1 UNK         0.3118 
    102 H102       28.0445  -47.2188  -53.3930 H         1 UNK         0.0546 
    103 H103       28.6027  -48.7225  -51.4984 H         1 UNK         0.0828 
    104 H104       30.0404  -47.9292  -52.1197 H         1 UNK         0.0828 
    105 H105       29.7322  -49.6175  -52.5083 H         1 UNK         0.0828 
    106 H106       30.2553  -48.6225  -54.7084 H         1 UNK         0.3005 
    107 H107       29.5428  -47.3352  -57.9053 H         1 UNK         0.1257 
    108 H108       31.7710  -46.1546  -56.1604 H         1 UNK         0.0775 
    109 H109       30.4381  -45.2037  -56.7570 H         1 UNK         0.0775 
    110 H110       34.1018  -44.9926  -57.9028 H         1 UNK         0.0840 
    111 H111       33.3289  -43.8604  -58.9811 H         1 UNK         0.0840 
    112 H112       31.9749  -48.3987  -56.9903 H         1 UNK         0.2987 
    113 H113       31.1918  -51.6953  -56.2508 H         1 UNK         0.0785 
    114 H114       31.1144  -51.9149  -58.7427 H         1 UNK         0.0798 
    115 H115       32.6863  -52.3758  -58.1133 H         1 UNK         0.0798 
    116 H116       32.4719  -50.8083  -58.8954 H         1 UNK         0.0798 
    117 H117       33.7120  -50.5272  -56.7293 H         1 UNK         0.3079 
    118 H118       35.0295  -50.1333  -54.7768 H         1 UNK         0.0794 
    119 H119       33.8521  -47.2848  -54.9749 H         1 UNK         0.0786 
    120 H120       34.6160  -48.1547  -56.3000 H         1 UNK         0.0786 
    121 H121       35.5686  -47.6669  -54.9120 H         1 UNK         0.0786 
    122 H122       33.3247  -49.1326  -52.6689 H         1 UNK         0.3032 
    123 H123       34.4740  -49.6349  -50.3852 H         1 UNK         0.1094 
    124 H124       36.9840  -47.8731  -50.3231 H         1 UNK         0.0794 
    125 H125       36.1243  -48.4897  -48.9121 H         1 UNK         0.0794 
    126 H126       36.9272  -49.6022  -50.0068 H         1 UNK         0.0794 
    127 H127       34.8296  -46.7022  -50.6604 H         1 UNK         0.3016 
@<TRIPOS>BOND
     1    1    2 1    
     2    1   67 1    
     3    1   68 1    
     4    1   69 1    
     5    2    3 2    
     6    2    4 am   BACKBONE|DICT|INTERRES
     7    4    5 1    
     8    4   70 1    
     9    5    6 1    
    10    5   65 1    
    11    5   71 1    
    12    6    7 1    
    13    6   72 1    
    14    6   73 1    
    15    7    8 1    
    16    8    9 1    
    17    8   74 1    
    18    8   75 1    
    19    9   10 ar   
    20    9   14 ar   
    21   10   11 ar   
    22   10   76 1    
    23   11   12 ar   
    24   11   48 1    
    25   12   13 ar   
    26   12   77 1    
    27   13   14 ar   
    28   13   15 1    
    29   14   78 1    
    30   15   16 1    
    31   15   79 1    
    32   15   80 1    
    33   16   17 1    
    34   17   18 1    
    35   17   81 1    
    36   17   82 1    
    37   18   19 1    
    38   18   22 1    
    39   18   83 1    
    40   19   20 am   BACKBONE|DICT|INTERRES
    41   19   21 2    
    42   20   84 1    
    43   20   85 1    
    44   22   23 am   BACKBONE|DICT|INTERRES
    45   22   86 1    
    46   23   24 2    
    47   23   25 1    
    48   25   26 1    
    49   25   27 1    
    50   25   87 1    
    51   26   88 1    
    52   26   89 1    
    53   26   90 1    
    54   27   28 am   BACKBONE|DICT|INTERRES
    55   27   91 1    
    56   28   29 2    
    57   28   30 1    
    58   30   31 1    
    59   30   32 1    
    60   30   92 1    
    61   31   93 1    
    62   31   94 1    
    63   31   95 1    
    64   32   33 am   BACKBONE|DICT|INTERRES
    65   32   96 1    
    66   33   34 2    
    67   33   35 1    
    68   35   36 1    
    69   35   37 1    
    70   35   97 1    
    71   36   98 1    
    72   36   99 1    
    73   36  100 1    
    74   37   38 am   BACKBONE|DICT|INTERRES
    75   37  101 1    
    76   38   39 2    
    77   38   40 1    
    78   40   41 1    
    79   40   42 1    
    80   40  102 1    
    81   41  103 1    
    82   41  104 1    
    83   41  105 1    
    84   42   43 am   BACKBONE|DICT|INTERRES
    85   42  106 1    
    86   43   44 2    
    87   43   45 1    
    88   45   46 1    
    89   45   49 1    
    90   45  107 1    
    91   46   47 1    
    92   46  108 1    
    93   46  109 1    
    94   47   48 1    
    95   48  110 1    
    96   48  111 1    
    97   49   50 am   BACKBONE|DICT|INTERRES
    98   49  112 1    
    99   50   51 2    
   100   50   52 1    
   101   52   53 1    
   102   52   54 1    
   103   52  113 1    
   104   53  114 1    
   105   53  115 1    
   106   53  116 1    
   107   54   55 am   BACKBONE|DICT|INTERRES
   108   54  117 1    
   109   55   56 2    
   110   55   57 1    
   111   57   58 1    
   112   57   59 1    
   113   57  118 1    
   114   58  119 1    
   115   58  120 1    
   116   58  121 1    
   117   59   60 am   BACKBONE|DICT|INTERRES
   118   59  122 1    
   119   60   61 2    
   120   60   62 1    
   121   62   63 1    
   122   62   64 1    
   123   62  123 1    
   124   63  124 1    
   125   63  125 1    
   126   63  126 1    
   127   64   65 am   BACKBONE|DICT|INTERRES
   128   64  127 1    
   129   65   66 2    
@<TRIPOS>SUBSTRUCTURE
     1 UNK         1 GROUP             0       ****    0 ROOT    
