@<TRIPOS>MOLECULE
3R134
127   129    1
SMALL
USER_CHARGES


@<TRIPOS>ATOM
      1 CA         38.8086  -45.5442  -53.2746 C.3       0 UNK        -0.1968 
      2 C          37.4890  -46.0273  -53.8587 C.2       0 UNK         0.4852 
      3 O          37.4456  -46.4219  -55.0252 O.2       0 UNK        -0.5359 
      4 N          36.4138  -45.9927  -53.0603 N.am      1 UNK        -0.4300 
      5 CA         35.0814  -46.4819  -53.4270 C.3       1 UNK         0.0863 
      6 C6         33.9972  -45.9226  -52.4691 C.3       11 UNK        -0.0953 
      7 S7         32.4136  -45.6051  -53.3151 S.3       11 UNK        -0.2369 
      8 C8         32.3344  -43.7871  -53.2279 C.3       11 UNK         0.0226 
      9 C9         30.9587  -43.2700  -53.6182 C.ar      11 UNK        -0.0699 
     10 C10        29.8897  -43.4147  -52.7306 C.ar      11 UNK        -0.0804 
     11 C11        28.6081  -42.9849  -53.0839 C.ar      11 UNK        -0.0871 
     12 C12        28.4163  -42.3342  -54.3076 C.ar      11 UNK        -0.1008 
     13 C13        29.4854  -42.1477  -55.1904 C.ar      11 UNK        -0.0735 
     14 C14        30.7510  -42.6381  -54.8485 C.ar      11 UNK        -0.0945 
     15 C15        29.2908  -41.3721  -56.4883 C.3       11 UNK         0.0169 
     16 S16        28.6998  -42.4139  -57.8612 S.3       11 UNK        -0.2669 
     17 C17        26.9025  -42.4975  -57.5454 C.3       11 UNK        -0.0850 
     18 CA         26.4434  -43.9098  -57.0800 C.3       10 UNK         0.0855 
     19 C          24.9924  -43.9274  -56.5120 C.2       10 UNK         0.5543 
     20 N          24.2065  -44.9783  -56.7196 N.am      10 UNK        -0.7343 
     21 O          24.5806  -42.9871  -55.8374 O.2       10 UNK        -0.5027 
     22 N          26.7241  -44.9855  -58.0448 N.am      10 UNK        -0.4495 
     23 C          26.2644  -45.0700  -59.2996 C.2       10 UNK         0.4903 
     24 O          25.5851  -44.2015  -59.8476 O.2       10 UNK        -0.4860 
     25 CA         26.5948  -46.3517  -60.0860 C.3       9 UNK         0.0227 
     26 CB         27.8310  -46.1336  -60.9737 C.3       9 UNK        -0.1964 
     27 N          26.7909  -47.5576  -59.2721 N.am      9 UNK        -0.4231 
     28 C          25.8647  -48.1099  -58.4685 C.2       9 UNK         0.5014 
     29 O          24.7696  -47.5940  -58.2385 O.2       9 UNK        -0.5270 
     30 CA         26.1899  -49.4689  -57.8264 C.3       8 UNK         0.0284 
     31 CB         25.5869  -50.6072  -58.6747 C.3       8 UNK        -0.1977 
     32 N          27.6303  -49.6484  -57.6503 N.am      8 UNK        -0.4342 
     33 C          28.2582  -50.6115  -56.9716 C.2       8 UNK         0.5039 
     34 O          27.6850  -51.5525  -56.4228 O.2       8 UNK        -0.5547 
     35 CA         29.7930  -50.5005  -56.8673 C.3       7 UNK         0.0281 
     36 CB         30.4791  -51.2040  -58.0549 C.3       7 UNK        -0.1963 
     37 N          30.2876  -49.1258  -56.6859 N.am      7 UNK        -0.4444 
     38 C          30.2494  -48.0906  -57.5397 C.2       7 UNK         0.5104 
     39 O          29.7892  -48.1579  -58.6819 O.2       7 UNK        -0.5100 
     40 CA         30.6902  -46.7324  -56.9603 C.3       6 UNK         0.0396 
     41 CB         30.4402  -45.5522  -57.9139 C.3       6 UNK        -0.1801 
     42 N          30.0911  -46.4696  -55.6468 N.am      6 UNK        -0.4747 
     43 C          28.7994  -46.5755  -55.2916 C.2       6 UNK         0.5012 
     44 O          27.8778  -46.7918  -56.0809 O.2       6 UNK        -0.5003 
     45 CA         28.5087  -46.4808  -53.7789 C.3       5 UNK         0.0782 
     46 C46        27.1801  -45.7337  -53.4900 C.3       11 UNK        -0.0868 
     47 S47        27.1709  -45.0228  -51.8106 S.3       11 UNK        -0.2515 
     48 C48        27.4267  -43.2434  -52.1538 C.3       11 UNK         0.0199 
     49 N          28.5292  -47.7874  -53.1057 N.am      5 UNK        -0.4607 
     50 C          29.5011  -48.7091  -53.1396 C.2       4 UNK         0.5031 
     51 O          30.5292  -48.6170  -53.8151 O.2       4 UNK        -0.5119 
     52 CA         29.2726  -49.9609  -52.2793 C.3       4 UNK         0.0263 
     53 CB         28.3079  -50.9345  -52.9736 C.3       4 UNK        -0.1967 
     54 N          30.5474  -50.6397  -52.0651 N.am      4 UNK        -0.4237 
     55 C          31.3841  -50.4113  -51.0493 C.2       3 UNK         0.4908 
     56 O          31.1014  -49.7298  -50.0631 O.2       3 UNK        -0.5102 
     57 CA         32.7881  -51.0309  -51.1636 C.3       3 UNK         0.0241 
     58 CB         32.7428  -52.5704  -51.0838 C.3       3 UNK        -0.1971 
     59 N          33.5382  -50.5657  -52.3398 N.am      3 UNK        -0.4139 
     60 C          33.2841  -50.7579  -53.6428 C.2       2 UNK         0.5016 
     61 O          32.3430  -51.4333  -54.0668 O.2       2 UNK        -0.5319 
     62 CA         34.2423  -50.0619  -54.6323 C.3       2 UNK         0.0286 
     63 CB         33.8622  -50.3098  -56.1034 C.3       2 UNK        -0.1963 
     64 N          34.3350  -48.6135  -54.4092 N.am      2 UNK        -0.4790 
     65 C          35.0708  -48.0250  -53.4582 C.2       1 UNK         0.5024 
     66 O          35.7046  -48.6576  -52.6085 O.2       1 UNK        -0.4888 
     67 H67        39.5444  -46.3476  -53.2963 H         1 UNK         0.0892 
     68 H68        39.1957  -44.7110  -53.8606 H         1 UNK         0.0892 
     69 H69        38.7009  -45.2111  -52.2425 H         1 UNK         0.0892 
     70 H70        36.5217  -45.6946  -52.1014 H         1 UNK         0.3107 
     71 H71        34.8821  -46.1173  -54.4376 H         1 UNK         0.0773 
     72 H72        33.8166  -46.5879  -51.6220 H         1 UNK         0.0680 
     73 H73        34.3353  -44.9855  -52.0241 H         1 UNK         0.0680 
     74 H74        32.5577  -43.4585  -52.2117 H         1 UNK         0.0650 
     75 H75        33.1075  -43.3627  -53.8703 H         1 UNK         0.0650 
     76 H76        30.0466  -43.9069  -51.7800 H         1 UNK         0.1397 
     77 H77        27.4332  -41.9710  -54.5732 H         1 UNK         0.1363 
     78 H78        31.5789  -42.5082  -55.5320 H         1 UNK         0.1355 
     79 H79        30.2383  -40.9220  -56.7887 H         1 UNK         0.0707 
     80 H80        28.6070  -40.5367  -56.3309 H         1 UNK         0.0707 
     81 H81        26.6422  -41.7428  -56.8027 H         1 UNK         0.1034 
     82 H82        26.3753  -42.1964  -58.4509 H         1 UNK         0.1034 
     83 H83        27.0678  -44.1537  -56.2251 H         1 UNK         0.0482 
     84 H84        23.2756  -44.9797  -56.3350 H         1 UNK         0.3460 
     85 H85        24.5276  -45.7715  -57.2634 H         1 UNK         0.3460 
     86 H86        27.2232  -45.7777  -57.6523 H         1 UNK         0.2989 
     87 H87        25.7438  -46.5474  -60.7416 H         1 UNK         0.0559 
     88 H88        27.9981  -46.9810  -61.6387 H         1 UNK         0.0848 
     89 H89        28.7348  -45.9902  -60.3816 H         1 UNK         0.0848 
     90 H90        27.7109  -45.2502  -61.6026 H         1 UNK         0.0848 
     91 H91        27.6721  -48.0328  -59.4125 H         1 UNK         0.3144 
     92 H92        25.7289  -49.4794  -56.8368 H         1 UNK         0.0727 
     93 H93        25.6762  -51.5730  -58.1780 H         1 UNK         0.0790 
     94 H94        26.0743  -50.6842  -59.6472 H         1 UNK         0.0790 
     95 H95        24.5237  -50.4403  -58.8538 H         1 UNK         0.0790 
     96 H96        28.2301  -48.9130  -58.0124 H         1 UNK         0.3215 
     97 H97        30.0851  -51.0334  -55.9607 H         1 UNK         0.0863 
     98 H98        31.5639  -51.1851  -57.9573 H         1 UNK         0.0808 
     99 H99        30.2197  -50.7466  -59.0099 H         1 UNK         0.0808 
    100 H100       30.1784  -52.2511  -58.1081 H         1 UNK         0.0808 
    101 H101       30.5758  -48.9130  -55.7323 H         1 UNK         0.3118 
    102 H102       31.7667  -46.8045  -56.8000 H         1 UNK         0.0546 
    103 H103       29.3797  -45.4152  -58.1124 H         1 UNK         0.0828 
    104 H104       30.9361  -45.7074  -58.8725 H         1 UNK         0.0828 
    105 H105       30.8239  -44.6215  -57.4965 H         1 UNK         0.0828 
    106 H106       30.7610  -46.3387  -54.8981 H         1 UNK         0.3005 
    107 H107       29.3273  -45.9079  -53.3460 H         1 UNK         0.1257 
    108 H108       27.0094  -44.9237  -54.1954 H         1 UNK         0.0775 
    109 H109       26.3244  -46.4015  -53.6048 H         1 UNK         0.0775 
    110 H110       26.5068  -42.8355  -52.5759 H         1 UNK         0.0840 
    111 H111       27.5906  -42.7190  -51.2114 H         1 UNK         0.0840 
    112 H112       27.7234  -47.9744  -52.5273 H         1 UNK         0.2987 
    113 H113       28.8445  -49.6570  -51.3216 H         1 UNK         0.0785 
    114 H114       28.0970  -51.7969  -52.3412 H         1 UNK         0.0798 
    115 H115       28.7192  -51.3058  -53.9120 H         1 UNK         0.0798 
    116 H116       27.3533  -50.4583  -53.2006 H         1 UNK         0.0798 
    117 H117       30.9525  -51.0992  -52.8786 H         1 UNK         0.3079 
    118 H118       33.3543  -50.6803  -50.2991 H         1 UNK         0.0794 
    119 H119       32.2480  -52.8965  -50.1680 H         1 UNK         0.0786 
    120 H120       33.7469  -52.9945  -51.0776 H         1 UNK         0.0786 
    121 H121       32.1995  -53.0130  -51.9190 H         1 UNK         0.0786 
    122 H122       34.3290  -49.9614  -52.1337 H         1 UNK         0.3032 
    123 H123       35.2283  -50.5049  -54.4725 H         1 UNK         0.1094 
    124 H124       32.8967  -49.8690  -56.3462 H         1 UNK         0.0794 
    125 H125       34.6037  -49.8877  -56.7819 H         1 UNK         0.0794 
    126 H126       33.7989  -51.3772  -56.3199 H         1 UNK         0.0794 
    127 H127       33.7903  -48.0298  -55.0272 H         1 UNK         0.3016 
@<TRIPOS>BOND
     1    1    2 1    
     2    1   67 1    
     3    1   68 1    
     4    1   69 1    
     5    2    3 2    
     6    2    4 am   BACKBONE|DICT|INTERRES
     7    4    5 1    
     8    4   70 1    
     9    5    6 1    
    10    5   65 1    
    11    5   71 1    
    12    6    7 1    
    13    6   72 1    
    14    6   73 1    
    15    7    8 1    
    16    8    9 1    
    17    8   74 1    
    18    8   75 1    
    19    9   10 ar   
    20    9   14 ar   
    21   10   11 ar   
    22   10   76 1    
    23   11   12 ar   
    24   11   48 1    
    25   12   13 ar   
    26   12   77 1    
    27   13   14 ar   
    28   13   15 1    
    29   14   78 1    
    30   15   16 1    
    31   15   79 1    
    32   15   80 1    
    33   16   17 1    
    34   17   18 1    
    35   17   81 1    
    36   17   82 1    
    37   18   19 1    
    38   18   22 1    
    39   18   83 1    
    40   19   20 am   BACKBONE|DICT|INTERRES
    41   19   21 2    
    42   20   84 1    
    43   20   85 1    
    44   22   23 am   BACKBONE|DICT|INTERRES
    45   22   86 1    
    46   23   24 2    
    47   23   25 1    
    48   25   26 1    
    49   25   27 1    
    50   25   87 1    
    51   26   88 1    
    52   26   89 1    
    53   26   90 1    
    54   27   28 am   BACKBONE|DICT|INTERRES
    55   27   91 1    
    56   28   29 2    
    57   28   30 1    
    58   30   31 1    
    59   30   32 1    
    60   30   92 1    
    61   31   93 1    
    62   31   94 1    
    63   31   95 1    
    64   32   33 am   BACKBONE|DICT|INTERRES
    65   32   96 1    
    66   33   34 2    
    67   33   35 1    
    68   35   36 1    
    69   35   37 1    
    70   35   97 1    
    71   36   98 1    
    72   36   99 1    
    73   36  100 1    
    74   37   38 am   BACKBONE|DICT|INTERRES
    75   37  101 1    
    76   38   39 2    
    77   38   40 1    
    78   40   41 1    
    79   40   42 1    
    80   40  102 1    
    81   41  103 1    
    82   41  104 1    
    83   41  105 1    
    84   42   43 am   BACKBONE|DICT|INTERRES
    85   42  106 1    
    86   43   44 2    
    87   43   45 1    
    88   45   46 1    
    89   45   49 1    
    90   45  107 1    
    91   46   47 1    
    92   46  108 1    
    93   46  109 1    
    94   47   48 1    
    95   48  110 1    
    96   48  111 1    
    97   49   50 am   BACKBONE|DICT|INTERRES
    98   49  112 1    
    99   50   51 2    
   100   50   52 1    
   101   52   53 1    
   102   52   54 1    
   103   52  113 1    
   104   53  114 1    
   105   53  115 1    
   106   53  116 1    
   107   54   55 am   BACKBONE|DICT|INTERRES
   108   54  117 1    
   109   55   56 2    
   110   55   57 1    
   111   57   58 1    
   112   57   59 1    
   113   57  118 1    
   114   58  119 1    
   115   58  120 1    
   116   58  121 1    
   117   59   60 am   BACKBONE|DICT|INTERRES
   118   59  122 1    
   119   60   61 2    
   120   60   62 1    
   121   62   63 1    
   122   62   64 1    
   123   62  123 1    
   124   63  124 1    
   125   63  125 1    
   126   63  126 1    
   127   64   65 am   BACKBONE|DICT|INTERRES
   128   64  127 1    
   129   65   66 2    
@<TRIPOS>SUBSTRUCTURE
     1 UNK         1 GROUP             0       ****    0 ROOT    
