@<TRIPOS>MOLECULE
3R134
127   129    1
SMALL
USER_CHARGES


@<TRIPOS>ATOM
      1 CA         37.4977  -41.2200  -51.9553 C.3       0 UNK        -0.1968 
      2 C          37.2189  -42.6976  -52.1899 C.2       0 UNK         0.4852 
      3 O          37.8301  -43.5454  -51.5372 O.2       0 UNK        -0.5359 
      4 N          36.3086  -43.0113  -53.1212 N.am      1 UNK        -0.4300 
      5 CA         35.8616  -44.3718  -53.4295 C.3       1 UNK         0.0863 
      6 C6         35.1406  -44.4162  -54.7988 C.3       11 UNK        -0.0953 
      7 S7         34.9526  -46.1154  -55.4334 S.3       11 UNK        -0.2369 
      8 C8         33.4370  -45.9658  -56.4434 C.3       11 UNK         0.0226 
      9 C9         32.1615  -45.6031  -55.6799 C.ar      11 UNK        -0.0699 
     10 C10        31.9851  -45.9162  -54.3269 C.ar      11 UNK        -0.0804 
     11 C11        30.7951  -45.6001  -53.6676 C.ar      11 UNK        -0.0871 
     12 C12        29.7568  -44.9930  -54.3773 C.ar      11 UNK        -0.1008 
     13 C13        29.9116  -44.6768  -55.7305 C.ar      11 UNK        -0.0735 
     14 C14        31.1201  -44.9728  -56.3689 C.ar      11 UNK        -0.0945 
     15 C15        28.7585  -44.0614  -56.5124 C.3       11 UNK         0.0169 
     16 S16        28.1618  -42.5221  -55.7474 S.3       11 UNK        -0.2669 
     17 C17        26.7419  -42.0961  -56.8105 C.3       11 UNK        -0.0850 
     18 CA         25.4026  -42.6814  -56.2658 C.3       10 UNK         0.0855 
     19 C          24.1445  -41.8530  -56.6825 C.2       10 UNK         0.5543 
     20 N          22.9673  -42.4574  -56.7911 N.am      10 UNK        -0.7343 
     21 O          24.2208  -40.6415  -56.8731 O.2       10 UNK        -0.5027 
     22 N          25.2906  -44.1371  -56.4958 N.am      10 UNK        -0.4495 
     23 C          25.1326  -44.7320  -57.6874 C.2       10 UNK         0.4903 
     24 O          25.0656  -44.1210  -58.7551 O.2       10 UNK        -0.4860 
     25 CA         25.0012  -46.2659  -57.6659 C.3       9 UNK         0.0227 
     26 CB         23.9030  -46.7669  -58.6257 C.3       9 UNK        -0.1964 
     27 N          26.2700  -46.9579  -57.9191 N.am      9 UNK        -0.4231 
     28 C          27.0436  -46.9180  -59.0172 C.2       9 UNK         0.5014 
     29 O          26.8254  -46.2233  -60.0097 O.2       9 UNK        -0.5270 
     30 CA         28.2630  -47.8569  -59.0318 C.3       8 UNK         0.0284 
     31 CB         29.4307  -47.2612  -58.2337 C.3       8 UNK        -0.1977 
     32 N          27.9583  -49.1943  -58.5229 N.am      8 UNK        -0.4342 
     33 C          27.1345  -50.0729  -59.1122 C.2       8 UNK         0.5039 
     34 O          26.5719  -49.8773  -60.1902 O.2       8 UNK        -0.5547 
     35 CA         26.8880  -51.3914  -58.3644 C.3       7 UNK         0.0281 
     36 CB         28.0291  -52.3904  -58.6173 C.3       7 UNK        -0.1963 
     37 N          26.7342  -51.1651  -56.9266 N.am      7 UNK        -0.4444 
     38 C          25.6029  -50.7358  -56.3500 C.2       7 UNK         0.5104 
     39 O          24.5470  -50.5585  -56.9577 O.2       7 UNK        -0.5100 
     40 CA         25.6528  -50.4528  -54.8380 C.3       6 UNK         0.0396 
     41 CB         25.2107  -51.6930  -54.0454 C.3       6 UNK        -0.1801 
     42 N          26.9723  -50.0215  -54.3678 N.am      6 UNK        -0.4747 
     43 C          27.5317  -48.8374  -54.6562 C.2       6 UNK         0.5012 
     44 O          26.9987  -47.9804  -55.3617 O.2       6 UNK        -0.5003 
     45 CA         28.9426  -48.5884  -54.0920 C.3       5 UNK         0.0782 
     46 C46        28.8547  -48.0619  -52.6376 C.3       11 UNK        -0.0868 
     47 S47        30.4890  -47.7120  -51.9026 S.3       11 UNK        -0.2515 
     48 C48        30.6345  -45.9212  -52.1901 C.3       11 UNK         0.0199 
     49 N          29.8311  -49.7506  -54.2086 N.am      5 UNK        -0.4607 
     50 C          30.1629  -50.3703  -55.3493 C.2       4 UNK         0.5031 
     51 O          29.6143  -50.1413  -56.4281 O.2       4 UNK        -0.5119 
     52 CA         31.2815  -51.4305  -55.2687 C.3       4 UNK         0.0263 
     53 CB         32.0010  -51.6233  -56.6210 C.3       4 UNK        -0.1967 
     54 N          32.2575  -51.1910  -54.1927 N.am      4 UNK        -0.4237 
     55 C          33.0469  -50.1161  -54.0406 C.2       3 UNK         0.4908 
     56 O          33.0682  -49.1490  -54.8038 O.2       3 UNK        -0.5102 
     57 CA         33.9838  -50.1327  -52.8298 C.3       3 UNK         0.0241 
     58 CB         35.3358  -50.7750  -53.1867 C.3       3 UNK        -0.1971 
     59 N          34.1927  -48.7584  -52.3825 N.am      3 UNK        -0.4139 
     60 C          34.3544  -48.3821  -51.1084 C.2       2 UNK         0.5016 
     61 O          34.4109  -49.1784  -50.1693 O.2       2 UNK        -0.5319 
     62 CA         34.4850  -46.8737  -50.8354 C.3       2 UNK         0.0286 
     63 CB         35.1771  -46.5621  -49.4923 C.3       2 UNK        -0.1963 
     64 N          35.1866  -46.1909  -51.9249 N.am      2 UNK        -0.4790 
     65 C          34.9788  -44.9188  -52.2864 C.2       1 UNK         0.5024 
     66 O          34.1293  -44.1897  -51.7684 O.2       1 UNK        -0.4888 
     67 H67        37.2710  -40.9553  -50.9229 H         1 UNK         0.0892 
     68 H68        38.5493  -41.0025  -52.1402 H         1 UNK         0.0892 
     69 H69        36.9003  -40.5831  -52.6074 H         1 UNK         0.0892 
     70 H70        35.8165  -42.2708  -53.6001 H         1 UNK         0.3107 
     71 H71        36.7580  -44.9925  -53.5001 H         1 UNK         0.0773 
     72 H72        34.1695  -43.9211  -54.7408 H         1 UNK         0.0680 
     73 H73        35.7163  -43.8629  -55.5425 H         1 UNK         0.0680 
     74 H74        33.2695  -46.9192  -56.9461 H         1 UNK         0.0650 
     75 H75        33.6238  -45.2296  -57.2267 H         1 UNK         0.0650 
     76 H76        32.7671  -46.4188  -53.7788 H         1 UNK         0.1397 
     77 H77        28.8237  -44.7659  -53.8799 H         1 UNK         0.1363 
     78 H78        31.2427  -44.7369  -57.4171 H         1 UNK         0.1355 
     79 H79        29.0497  -43.8563  -57.5437 H         1 UNK         0.0707 
     80 H80        27.9493  -44.7897  -56.5547 H         1 UNK         0.0707 
     81 H81        26.9274  -42.4080  -57.8392 H         1 UNK         0.1034 
     82 H82        26.7128  -41.0057  -56.8390 H         1 UNK         0.1034 
     83 H83        25.4207  -42.5669  -55.1813 H         1 UNK         0.0482 
     84 H84        22.8839  -43.4471  -56.6243 H         1 UNK         0.3460 
     85 H85        22.1563  -41.9170  -57.0479 H         1 UNK         0.3460 
     86 H86        25.3179  -44.7113  -55.6652 H         1 UNK         0.2989 
     87 H87        24.7003  -46.5590  -56.6587 H         1 UNK         0.0559 
     88 H88        24.1327  -46.5360  -59.6665 H         1 UNK         0.0848 
     89 H89        22.9431  -46.3031  -58.3956 H         1 UNK         0.0848 
     90 H90        23.7714  -47.8462  -58.5449 H         1 UNK         0.0848 
     91 H91        26.6002  -47.5170  -57.1349 H         1 UNK         0.3144 
     92 H92        28.5855  -47.9656  -60.0695 H         1 UNK         0.0727 
     93 H93        30.3219  -47.8852  -58.3048 H         1 UNK         0.0790 
     94 H94        29.1842  -47.1557  -57.1769 H         1 UNK         0.0790 
     95 H95        29.6937  -46.2742  -58.6146 H         1 UNK         0.0790 
     96 H96        28.4438  -49.4812  -57.6743 H         1 UNK         0.3215 
     97 H97        25.9659  -51.8300  -58.7531 H         1 UNK         0.0863 
     98 H98        28.9890  -52.0114  -58.2666 H         1 UNK         0.0808 
     99 H99        28.1328  -52.5979  -59.6832 H         1 UNK         0.0808 
    100 H100       27.8413  -53.3417  -58.1194 H         1 UNK         0.0808 
    101 H101       27.5695  -51.2294  -56.3613 H         1 UNK         0.3118 
    102 H102       24.9430  -49.6486  -54.6320 H         1 UNK         0.0546 
    103 H103       25.1598  -51.4845  -52.9766 H         1 UNK         0.0828 
    104 H104       25.8910  -52.5326  -54.1932 H         1 UNK         0.0828 
    105 H105       24.2177  -52.0206  -54.3566 H         1 UNK         0.0828 
    106 H106       27.4901  -50.6692  -53.7907 H         1 UNK         0.3005 
    107 H107       29.3859  -47.8066  -54.7117 H         1 UNK         0.1257 
    108 H108       28.3582  -48.7934  -51.9971 H         1 UNK         0.0775 
    109 H109       28.2420  -47.1593  -52.5920 H         1 UNK         0.0775 
    110 H110       29.7663  -45.4117  -51.7691 H         1 UNK         0.0840 
    111 H111       31.4988  -45.5377  -51.6475 H         1 UNK         0.0840 
    112 H112       30.3375  -49.9939  -53.3704 H         1 UNK         0.2987 
    113 H113       30.7832  -52.3700  -55.0256 H         1 UNK         0.0785 
    114 H114       32.7840  -52.3781  -56.5508 H         1 UNK         0.0798 
    115 H115       31.3061  -51.9520  -57.3941 H         1 UNK         0.0798 
    116 H116       32.4580  -50.6965  -56.9700 H         1 UNK         0.0798 
    117 H117       32.3259  -51.9283  -53.5039 H         1 UNK         0.3079 
    118 H118       33.5064  -50.7092  -52.0342 H         1 UNK         0.0794 
    119 H119       35.2044  -51.8017  -53.5309 H         1 UNK         0.0786 
    120 H120       36.0000  -50.8054  -52.3228 H         1 UNK         0.0786 
    121 H121       35.8438  -50.2258  -53.9807 H         1 UNK         0.0786 
    122 H122       34.0994  -48.0635  -53.1127 H         1 UNK         0.3032 
    123 H123       33.4612  -46.4997  -50.7792 H         1 UNK         0.1094 
    124 H124       36.2004  -46.9385  -49.4731 H         1 UNK         0.0794 
    125 H125       35.2115  -45.4895  -49.3010 H         1 UNK         0.0794 
    126 H126       34.6431  -47.0180  -48.6575 H         1 UNK         0.0794 
    127 H127       35.8966  -46.7298  -52.4034 H         1 UNK         0.3016 
@<TRIPOS>BOND
     1    1    2 1    
     2    1   67 1    
     3    1   68 1    
     4    1   69 1    
     5    2    3 2    
     6    2    4 am   BACKBONE|DICT|INTERRES
     7    4    5 1    
     8    4   70 1    
     9    5    6 1    
    10    5   65 1    
    11    5   71 1    
    12    6    7 1    
    13    6   72 1    
    14    6   73 1    
    15    7    8 1    
    16    8    9 1    
    17    8   74 1    
    18    8   75 1    
    19    9   10 ar   
    20    9   14 ar   
    21   10   11 ar   
    22   10   76 1    
    23   11   12 ar   
    24   11   48 1    
    25   12   13 ar   
    26   12   77 1    
    27   13   14 ar   
    28   13   15 1    
    29   14   78 1    
    30   15   16 1    
    31   15   79 1    
    32   15   80 1    
    33   16   17 1    
    34   17   18 1    
    35   17   81 1    
    36   17   82 1    
    37   18   19 1    
    38   18   22 1    
    39   18   83 1    
    40   19   20 am   BACKBONE|DICT|INTERRES
    41   19   21 2    
    42   20   84 1    
    43   20   85 1    
    44   22   23 am   BACKBONE|DICT|INTERRES
    45   22   86 1    
    46   23   24 2    
    47   23   25 1    
    48   25   26 1    
    49   25   27 1    
    50   25   87 1    
    51   26   88 1    
    52   26   89 1    
    53   26   90 1    
    54   27   28 am   BACKBONE|DICT|INTERRES
    55   27   91 1    
    56   28   29 2    
    57   28   30 1    
    58   30   31 1    
    59   30   32 1    
    60   30   92 1    
    61   31   93 1    
    62   31   94 1    
    63   31   95 1    
    64   32   33 am   BACKBONE|DICT|INTERRES
    65   32   96 1    
    66   33   34 2    
    67   33   35 1    
    68   35   36 1    
    69   35   37 1    
    70   35   97 1    
    71   36   98 1    
    72   36   99 1    
    73   36  100 1    
    74   37   38 am   BACKBONE|DICT|INTERRES
    75   37  101 1    
    76   38   39 2    
    77   38   40 1    
    78   40   41 1    
    79   40   42 1    
    80   40  102 1    
    81   41  103 1    
    82   41  104 1    
    83   41  105 1    
    84   42   43 am   BACKBONE|DICT|INTERRES
    85   42  106 1    
    86   43   44 2    
    87   43   45 1    
    88   45   46 1    
    89   45   49 1    
    90   45  107 1    
    91   46   47 1    
    92   46  108 1    
    93   46  109 1    
    94   47   48 1    
    95   48  110 1    
    96   48  111 1    
    97   49   50 am   BACKBONE|DICT|INTERRES
    98   49  112 1    
    99   50   51 2    
   100   50   52 1    
   101   52   53 1    
   102   52   54 1    
   103   52  113 1    
   104   53  114 1    
   105   53  115 1    
   106   53  116 1    
   107   54   55 am   BACKBONE|DICT|INTERRES
   108   54  117 1    
   109   55   56 2    
   110   55   57 1    
   111   57   58 1    
   112   57   59 1    
   113   57  118 1    
   114   58  119 1    
   115   58  120 1    
   116   58  121 1    
   117   59   60 am   BACKBONE|DICT|INTERRES
   118   59  122 1    
   119   60   61 2    
   120   60   62 1    
   121   62   63 1    
   122   62   64 1    
   123   62  123 1    
   124   63  124 1    
   125   63  125 1    
   126   63  126 1    
   127   64   65 am   BACKBONE|DICT|INTERRES
   128   64  127 1    
   129   65   66 2    
@<TRIPOS>SUBSTRUCTURE
     1 UNK         1 GROUP             0       ****    0 ROOT    
