@<TRIPOS>MOLECULE
3R134
127   129    1
SMALL
USER_CHARGES


@<TRIPOS>ATOM
      1 CA         34.1919  -42.9002  -51.7963 C.3       0 UNK        -0.1968 
      2 C          34.9729  -44.1566  -52.1529 C.2       0 UNK         0.4852 
      3 O          36.0070  -44.4308  -51.5438 O.2       0 UNK        -0.5359 
      4 N          34.4785  -44.9261  -53.1307 N.am      1 UNK        -0.4300 
      5 CA         35.1114  -46.1335  -53.6834 C.3       1 UNK         0.0863 
      6 C6         34.6066  -46.4568  -55.1146 C.3       11 UNK        -0.0953 
      7 S7         34.5657  -45.0411  -56.2644 S.3       11 UNK        -0.2369 
      8 C8         32.9058  -45.2290  -56.9961 C.3       11 UNK         0.0226 
      9 C9         31.8576  -44.3720  -56.2973 C.ar      11 UNK        -0.0699 
     10 C10        31.5354  -44.5777  -54.9519 C.ar      11 UNK        -0.0804 
     11 C11        30.5584  -43.7981  -54.3251 C.ar      11 UNK        -0.0871 
     12 C12        29.8858  -42.8169  -55.0598 C.ar      11 UNK        -0.1008 
     13 C13        30.1891  -42.6105  -56.4079 C.ar      11 UNK        -0.0735 
     14 C14        31.1814  -43.3830  -57.0167 C.ar      11 UNK        -0.0945 
     15 C15        29.4515  -41.5573  -57.2179 C.3       11 UNK         0.0169 
     16 S16        28.0329  -42.2816  -58.0959 S.3       11 UNK        -0.2669 
     17 C17        26.6653  -41.9163  -56.9387 C.3       11 UNK        -0.0850 
     18 CA         25.3745  -42.7343  -57.2061 C.3       10 UNK         0.0855 
     19 C          24.7517  -42.4194  -58.6009 C.2       10 UNK         0.5543 
     20 N          24.7451  -43.3482  -59.5517 N.am      10 UNK        -0.7343 
     21 O          24.2567  -41.3154  -58.8146 O.2       10 UNK        -0.5027 
     22 N          25.5763  -44.1637  -56.9310 N.am      10 UNK        -0.4495 
     23 C          24.5886  -45.0543  -56.7681 C.2       10 UNK         0.4903 
     24 O          23.4013  -44.7379  -56.6762 O.2       10 UNK        -0.4860 
     25 CA         24.9789  -46.5452  -56.6916 C.3       9 UNK         0.0227 
     26 CB         23.9322  -47.4568  -57.3651 C.3       9 UNK        -0.1964 
     27 N          26.3215  -46.8613  -57.1956 N.am      9 UNK        -0.4231 
     28 C          26.8134  -46.6550  -58.4275 C.2       9 UNK         0.5014 
     29 O          26.2022  -46.0777  -59.3288 O.2       9 UNK        -0.5270 
     30 CA         28.2365  -47.1771  -58.6895 C.3       8 UNK         0.0284 
     31 CB         29.2828  -46.2108  -58.1102 C.3       8 UNK        -0.1977 
     32 N          28.4574  -48.5231  -58.1513 N.am      8 UNK        -0.4342 
     33 C          27.8445  -49.6321  -58.5934 C.2       8 UNK         0.5039 
     34 O          27.0586  -49.6525  -59.5415 O.2       8 UNK        -0.5547 
     35 CA         28.1513  -50.9411  -57.8485 C.3       7 UNK         0.0281 
     36 CB         29.4944  -51.5370  -58.3032 C.3       7 UNK        -0.1963 
     37 N          28.1548  -50.7482  -56.3979 N.am      7 UNK        -0.4444 
     38 C          27.0494  -50.6633  -55.6436 C.2       7 UNK         0.5104 
     39 O          25.9082  -50.8184  -56.0783 O.2       7 UNK        -0.5100 
     40 CA         27.2460  -50.3405  -54.1502 C.3       6 UNK         0.0396 
     41 CB         27.3337  -51.6344  -53.3264 C.3       6 UNK        -0.1801 
     42 N          28.4289  -49.5147  -53.8904 N.am      6 UNK        -0.4747 
     43 C          28.5532  -48.2357  -54.2800 C.2       6 UNK         0.5012 
     44 O          27.6668  -47.6195  -54.8691 O.2       6 UNK        -0.5003 
     45 CA         29.9188  -47.5546  -54.0520 C.3       5 UNK         0.0782 
     46 C46        29.9858  -46.8241  -52.6893 C.3       11 UNK        -0.0868 
     47 S47        28.9766  -45.3047  -52.6223 S.3       11 UNK        -0.2515 
     48 C48        30.2284  -44.0048  -52.8542 C.3       11 UNK         0.0199 
     49 N          31.0332  -48.4963  -54.2152 N.am      5 UNK        -0.4607 
     50 C          31.3149  -49.1309  -55.3642 C.2       4 UNK         0.5031 
     51 O          30.7298  -48.8850  -56.4188 O.2       4 UNK        -0.5119 
     52 CA         32.3573  -50.2660  -55.3465 C.3       4 UNK         0.0263 
     53 CB         33.5901  -49.9224  -56.1946 C.3       4 UNK        -0.1967 
     54 N          32.7790  -50.6703  -54.0027 N.am      4 UNK        -0.4237 
     55 C          32.0122  -51.3659  -53.1500 C.2       3 UNK         0.4908 
     56 O          30.8802  -51.7642  -53.4260 O.2       3 UNK        -0.5102 
     57 CA         32.5745  -51.6185  -51.7382 C.3       3 UNK         0.0241 
     58 CB         33.3002  -52.9723  -51.6854 C.3       3 UNK        -0.1971 
     59 N          33.4704  -50.5659  -51.2409 N.am      3 UNK        -0.4139 
     60 C          33.1452  -49.2714  -51.1125 C.2       2 UNK         0.5016 
     61 O          32.0484  -48.8149  -51.4356 O.2       2 UNK        -0.5319 
     62 CA         34.2134  -48.3034  -50.5690 C.3       2 UNK         0.0286 
     63 CB         35.5175  -48.9853  -50.0929 C.3       2 UNK        -0.1963 
     64 N          34.5003  -47.2400  -51.5409 N.am      2 UNK        -0.4790 
     65 C          34.9810  -47.3914  -52.7852 C.2       1 UNK         0.5024 
     66 O          35.2881  -48.4902  -53.2528 O.2       1 UNK        -0.4888 
     67 H67        33.3528  -42.7342  -52.4720 H         1 UNK         0.0892 
     68 H68        33.8028  -42.9745  -50.7811 H         1 UNK         0.0892 
     69 H69        34.8426  -42.0277  -51.8486 H         1 UNK         0.0892 
     70 H70        33.6544  -44.6136  -53.6211 H         1 UNK         0.3107 
     71 H71        36.1816  -45.9294  -53.7583 H         1 UNK         0.0773 
     72 H72        33.6178  -46.9151  -55.0686 H         1 UNK         0.0680 
     73 H73        35.2631  -47.1973  -55.5736 H         1 UNK         0.0680 
     74 H74        32.5922  -46.2739  -56.9875 H         1 UNK         0.0650 
     75 H75        32.9767  -44.9527  -58.0492 H         1 UNK         0.0650 
     76 H76        32.0319  -45.3568  -54.3951 H         1 UNK         0.1397 
     77 H77        29.1224  -42.2171  -54.5835 H         1 UNK         0.1363 
     78 H78        31.4122  -43.2231  -58.0612 H         1 UNK         0.1355 
     79 H79        29.1247  -40.7349  -56.5795 H         1 UNK         0.0707 
     80 H80        30.1293  -41.1182  -57.9516 H         1 UNK         0.0707 
     81 H81        27.0046  -42.0999  -55.9183 H         1 UNK         0.1034 
     82 H82        26.4484  -40.8475  -56.9888 H         1 UNK         0.1034 
     83 H83        24.6379  -42.3869  -56.4789 H         1 UNK         0.0482 
     84 H84        24.3369  -43.1368  -60.4479 H         1 UNK         0.3460 
     85 H85        25.1785  -44.2510  -59.3923 H         1 UNK         0.3460 
     86 H86        26.5231  -44.5016  -57.0179 H         1 UNK         0.2989 
     87 H87        24.9968  -46.7938  -55.6296 H         1 UNK         0.0559 
     88 H88        23.8216  -47.2279  -58.4255 H         1 UNK         0.0848 
     89 H89        22.9513  -47.3419  -56.9026 H         1 UNK         0.0848 
     90 H90        24.2085  -48.5079  -57.2762 H         1 UNK         0.0848 
     91 H91        26.9359  -47.2780  -56.4970 H         1 UNK         0.3144 
     92 H92        28.3795  -47.2241  -59.7710 H         1 UNK         0.0727 
     93 H93        29.1911  -46.1095  -57.0284 H         1 UNK         0.0790 
     94 H94        29.1718  -45.2140  -58.5389 H         1 UNK         0.0790 
     95 H95        30.2968  -46.5456  -58.3289 H         1 UNK         0.0790 
     96 H96        29.1567  -48.6160  -57.4178 H         1 UNK         0.3215 
     97 H97        27.3670  -51.6589  -58.1003 H         1 UNK         0.0863 
     98 H98        29.7002  -52.4816  -57.7994 H         1 UNK         0.0808 
     99 H99        30.3305  -50.8648  -58.1106 H         1 UNK         0.0808 
    100 H100       29.4836  -51.7385  -59.3751 H         1 UNK         0.0808 
    101 H101       29.0481  -50.5821  -55.9582 H         1 UNK         0.3118 
    102 H102       26.3680  -49.7840  -53.8148 H         1 UNK         0.0546 
    103 H103       26.4411  -52.2457  -53.4660 H         1 UNK         0.0828 
    104 H104       27.4168  -51.4229  -52.2603 H         1 UNK         0.0828 
    105 H105       28.1918  -52.2418  -53.6164 H         1 UNK         0.0828 
    106 H106       29.2149  -49.9700  -53.4438 H         1 UNK         0.3005 
    107 H107       30.0190  -46.8119  -54.8444 H         1 UNK         0.1257 
    108 H108       31.0185  -46.5605  -52.4581 H         1 UNK         0.0775 
    109 H109       29.6700  -47.4856  -51.8803 H         1 UNK         0.0775 
    110 H110       29.8429  -43.0765  -52.4295 H         1 UNK         0.0840 
    111 H111       31.1289  -44.2379  -52.2845 H         1 UNK         0.0840 
    112 H112       31.5261  -48.7515  -53.3644 H         1 UNK         0.2987 
    113 H113       31.8719  -51.1237  -55.8174 H         1 UNK         0.0785 
    114 H114       33.3074  -49.5081  -57.1637 H         1 UNK         0.0798 
    115 H115       34.1904  -50.8115  -56.3880 H         1 UNK         0.0798 
    116 H116       34.2308  -49.1982  -55.6986 H         1 UNK         0.0798 
    117 H117       33.6853  -50.3466  -53.6893 H         1 UNK         0.3079 
    118 H118       31.7210  -51.6626  -51.0584 H         1 UNK         0.0794 
    119 H119       34.1884  -52.9799  -52.3186 H         1 UNK         0.0786 
    120 H120       32.6489  -53.7781  -52.0276 H         1 UNK         0.0786 
    121 H121       33.6088  -53.2189  -50.6692 H         1 UNK         0.0786 
    122 H122       34.4021  -50.8504  -50.9751 H         1 UNK         0.3032 
    123 H123       33.7607  -47.8195  -49.7019 H         1 UNK         0.1094 
    124 H124       36.2079  -48.2513  -49.6771 H         1 UNK         0.0794 
    125 H125       35.3181  -49.7120  -49.3041 H         1 UNK         0.0794 
    126 H126       36.0395  -49.5020  -50.8989 H         1 UNK         0.0794 
    127 H127       34.2676  -46.3021  -51.2469 H         1 UNK         0.3016 
@<TRIPOS>BOND
     1    1    2 1    
     2    1   67 1    
     3    1   68 1    
     4    1   69 1    
     5    2    3 2    
     6    2    4 am   BACKBONE|DICT|INTERRES
     7    4    5 1    
     8    4   70 1    
     9    5    6 1    
    10    5   65 1    
    11    5   71 1    
    12    6    7 1    
    13    6   72 1    
    14    6   73 1    
    15    7    8 1    
    16    8    9 1    
    17    8   74 1    
    18    8   75 1    
    19    9   10 ar   
    20    9   14 ar   
    21   10   11 ar   
    22   10   76 1    
    23   11   12 ar   
    24   11   48 1    
    25   12   13 ar   
    26   12   77 1    
    27   13   14 ar   
    28   13   15 1    
    29   14   78 1    
    30   15   16 1    
    31   15   79 1    
    32   15   80 1    
    33   16   17 1    
    34   17   18 1    
    35   17   81 1    
    36   17   82 1    
    37   18   19 1    
    38   18   22 1    
    39   18   83 1    
    40   19   20 am   BACKBONE|DICT|INTERRES
    41   19   21 2    
    42   20   84 1    
    43   20   85 1    
    44   22   23 am   BACKBONE|DICT|INTERRES
    45   22   86 1    
    46   23   24 2    
    47   23   25 1    
    48   25   26 1    
    49   25   27 1    
    50   25   87 1    
    51   26   88 1    
    52   26   89 1    
    53   26   90 1    
    54   27   28 am   BACKBONE|DICT|INTERRES
    55   27   91 1    
    56   28   29 2    
    57   28   30 1    
    58   30   31 1    
    59   30   32 1    
    60   30   92 1    
    61   31   93 1    
    62   31   94 1    
    63   31   95 1    
    64   32   33 am   BACKBONE|DICT|INTERRES
    65   32   96 1    
    66   33   34 2    
    67   33   35 1    
    68   35   36 1    
    69   35   37 1    
    70   35   97 1    
    71   36   98 1    
    72   36   99 1    
    73   36  100 1    
    74   37   38 am   BACKBONE|DICT|INTERRES
    75   37  101 1    
    76   38   39 2    
    77   38   40 1    
    78   40   41 1    
    79   40   42 1    
    80   40  102 1    
    81   41  103 1    
    82   41  104 1    
    83   41  105 1    
    84   42   43 am   BACKBONE|DICT|INTERRES
    85   42  106 1    
    86   43   44 2    
    87   43   45 1    
    88   45   46 1    
    89   45   49 1    
    90   45  107 1    
    91   46   47 1    
    92   46  108 1    
    93   46  109 1    
    94   47   48 1    
    95   48  110 1    
    96   48  111 1    
    97   49   50 am   BACKBONE|DICT|INTERRES
    98   49  112 1    
    99   50   51 2    
   100   50   52 1    
   101   52   53 1    
   102   52   54 1    
   103   52  113 1    
   104   53  114 1    
   105   53  115 1    
   106   53  116 1    
   107   54   55 am   BACKBONE|DICT|INTERRES
   108   54  117 1    
   109   55   56 2    
   110   55   57 1    
   111   57   58 1    
   112   57   59 1    
   113   57  118 1    
   114   58  119 1    
   115   58  120 1    
   116   58  121 1    
   117   59   60 am   BACKBONE|DICT|INTERRES
   118   59  122 1    
   119   60   61 2    
   120   60   62 1    
   121   62   63 1    
   122   62   64 1    
   123   62  123 1    
   124   63  124 1    
   125   63  125 1    
   126   63  126 1    
   127   64   65 am   BACKBONE|DICT|INTERRES
   128   64  127 1    
   129   65   66 2    
@<TRIPOS>SUBSTRUCTURE
     1 UNK         1 GROUP             0       ****    0 ROOT    
