@<TRIPOS>MOLECULE
3R134
127   129    1
SMALL
USER_CHARGES


@<TRIPOS>ATOM
      1 CA         29.5287  -46.7374  -49.6347 C.3       0 UNK        -0.1968 
      2 C          31.0000  -46.3526  -49.5844 C.2       0 UNK         0.4852 
      3 O          31.6831  -46.6809  -48.6134 O.2       0 UNK        -0.5359 
      4 N          31.4851  -45.6465  -50.6144 N.am      1 UNK        -0.4300 
      5 CA         32.8588  -45.1379  -50.7118 C.3       1 UNK         0.0863 
      6 C6         33.0169  -44.1161  -51.8625 C.3       11 UNK        -0.0953 
      7 S7         31.9221  -42.6668  -51.7025 S.3       11 UNK        -0.2369 
      8 C8         32.4360  -41.6805  -53.1472 C.3       11 UNK         0.0226 
      9 C9         32.0955  -42.3816  -54.4545 C.ar      11 UNK        -0.0699 
     10 C10        33.0571  -43.1551  -55.1099 C.ar      11 UNK        -0.0804 
     11 C11        32.7336  -43.8619  -56.2715 C.ar      11 UNK        -0.0871 
     12 C12        31.4424  -43.7531  -56.8017 C.ar      11 UNK        -0.1008 
     13 C13        30.4727  -42.9767  -56.1580 C.ar      11 UNK        -0.0735 
     14 C14        30.8080  -42.2888  -54.9879 C.ar      11 UNK        -0.0945 
     15 C15        29.0430  -42.9362  -56.6758 C.3       11 UNK         0.0169 
     16 S16        28.9283  -42.3015  -58.3798 S.3       11 UNK        -0.2669 
     17 C17        27.1651  -41.8184  -58.4593 C.3       11 UNK        -0.0850 
     18 CA         26.1856  -42.9565  -58.8609 C.3       10 UNK         0.0855 
     19 C          26.2818  -43.4145  -60.3445 C.2       10 UNK         0.5543 
     20 N          25.9818  -44.6705  -60.6607 N.am      10 UNK        -0.7343 
     21 O          26.6062  -42.6229  -61.2264 O.2       10 UNK        -0.5027 
     22 N          26.2317  -44.0834  -57.9227 N.am      10 UNK        -0.4495 
     23 C          25.4783  -44.2364  -56.8309 C.2       10 UNK         0.4903 
     24 O          24.6797  -43.3878  -56.4313 O.2       10 UNK        -0.4860 
     25 CA         25.6519  -45.5539  -56.0429 C.3       9 UNK         0.0227 
     26 CB         24.3283  -46.0295  -55.4096 C.3       9 UNK        -0.1964 
     27 N          26.2736  -46.6580  -56.7914 N.am      9 UNK        -0.4231 
     28 C          25.8499  -47.2161  -57.9379 C.2       9 UNK         0.5014 
     29 O          24.9192  -46.7831  -58.6190 O.2       9 UNK        -0.5270 
     30 CA         26.6089  -48.4617  -58.4210 C.3       8 UNK         0.0284 
     31 CB         27.8830  -48.0539  -59.1790 C.3       8 UNK        -0.1977 
     32 N          26.9533  -49.3798  -57.3329 N.am      8 UNK        -0.4342 
     33 C          26.0686  -50.0509  -56.5802 C.2       8 UNK         0.5039 
     34 O          24.8492  -50.0082  -56.7478 O.2       8 UNK        -0.5547 
     35 CA         26.6388  -50.9117  -55.4421 C.3       7 UNK         0.0281 
     36 CB         27.1288  -52.2706  -55.9698 C.3       7 UNK        -0.1963 
     37 N          27.7257  -50.2289  -54.7378 N.am      7 UNK        -0.4444 
     38 C          27.5444  -49.2840  -53.8044 C.2       7 UNK         0.5104 
     39 O          26.4402  -48.9280  -53.3928 O.2       7 UNK        -0.5100 
     40 CA         28.8101  -48.6197  -53.2294 C.3       6 UNK         0.0396 
     41 CB         29.3032  -49.4022  -52.0024 C.3       6 UNK        -0.1801 
     42 N          29.9076  -48.4994  -54.1938 N.am      6 UNK        -0.4747 
     43 C          29.8552  -47.7917  -55.3317 C.2       6 UNK         0.5012 
     44 O          28.8773  -47.1276  -55.6792 O.2       6 UNK        -0.5003 
     45 CA         31.0669  -47.9020  -56.2782 C.3       5 UNK         0.0782 
     46 C46        32.2205  -46.9608  -55.8531 C.3       11 UNK        -0.0868 
     47 S47        33.1808  -46.4502  -57.3219 S.3       11 UNK        -0.2515 
     48 C48        33.7805  -44.7717  -56.9090 C.3       11 UNK         0.0199 
     49 N          31.5323  -49.2854  -56.4242 N.am      5 UNK        -0.4607 
     50 C          30.8068  -50.3158  -56.8729 C.2       4 UNK         0.5031 
     51 O          29.6463  -50.2036  -57.2632 O.2       4 UNK        -0.5119 
     52 CA         31.4434  -51.7168  -56.8223 C.3       4 UNK         0.0263 
     53 CB         32.3481  -51.9689  -58.0443 C.3       4 UNK        -0.1967 
     54 N          32.1225  -52.0065  -55.5486 N.am      4 UNK        -0.4237 
     55 C          33.2429  -51.4559  -55.0613 C.2       3 UNK         0.4908 
     56 O          33.9607  -50.6734  -55.6891 O.2       3 UNK        -0.5102 
     57 CA         33.5968  -51.8111  -53.6065 C.3       3 UNK         0.0241 
     58 CB         34.5739  -52.9970  -53.5637 C.3       3 UNK        -0.1971 
     59 N          34.1854  -50.6721  -52.8949 N.am      3 UNK        -0.4139 
     60 C          33.5823  -49.4900  -52.7071 C.2       2 UNK         0.5016 
     61 O          32.4185  -49.2452  -53.0424 O.2       2 UNK        -0.5319 
     62 CA         34.4368  -48.3867  -52.0726 C.3       2 UNK         0.0286 
     63 CB         35.5131  -47.8965  -53.0647 C.3       2 UNK        -0.1963 
     64 N          33.5672  -47.2769  -51.6905 N.am      2 UNK        -0.4790 
     65 C          33.9006  -46.2620  -50.8840 C.2       1 UNK         0.5024 
     66 O          34.9860  -46.1755  -50.3074 O.2       1 UNK        -0.4888 
     67 H67        29.0919  -46.5535  -50.6159 H         1 UNK         0.0892 
     68 H68        29.4069  -47.7943  -49.3999 H         1 UNK         0.0892 
     69 H69        28.9675  -46.1614  -48.8995 H         1 UNK         0.0892 
     70 H70        30.8700  -45.3787  -51.3691 H         1 UNK         0.3107 
     71 H71        33.0879  -44.6280  -49.7733 H         1 UNK         0.0773 
     72 H72        34.0456  -43.7531  -51.9149 H         1 UNK         0.0680 
     73 H73        32.8093  -44.6037  -52.8162 H         1 UNK         0.0680 
     74 H74        33.5061  -41.4763  -53.0864 H         1 UNK         0.0650 
     75 H75        31.9371  -40.7111  -53.1089 H         1 UNK         0.0650 
     76 H76        34.0499  -43.2367  -54.6887 H         1 UNK         0.1397 
     77 H77        31.1793  -44.3028  -57.6952 H         1 UNK         0.1363 
     78 H78        30.0597  -41.7037  -54.4706 H         1 UNK         0.1355 
     79 H79        28.4199  -42.3277  -56.0188 H         1 UNK         0.0707 
     80 H80        28.6367  -43.9473  -56.6374 H         1 UNK         0.0707 
     81 H81        26.8642  -41.4050  -57.4958 H         1 UNK         0.1034 
     82 H82        27.0757  -40.9857  -59.1591 H         1 UNK         0.1034 
     83 H83        25.1832  -42.5278  -58.8065 H         1 UNK         0.0482 
     84 H84        25.6151  -45.3088  -59.9649 H         1 UNK         0.3460 
     85 H85        26.0361  -44.9574  -61.6252 H         1 UNK         0.3460 
     86 H86        26.8580  -44.8309  -58.1824 H         1 UNK         0.2989 
     87 H87        26.3424  -45.3246  -55.2301 H         1 UNK         0.0559 
     88 H88        23.9180  -45.2765  -54.7358 H         1 UNK         0.0848 
     89 H89        24.4746  -46.9384  -54.8252 H         1 UNK         0.0848 
     90 H90        23.5721  -46.2370  -56.1675 H         1 UNK         0.0848 
     91 H91        27.1176  -47.0379  -56.3660 H         1 UNK         0.3144 
     92 H92        25.9573  -48.9996  -59.1128 H         1 UNK         0.0727 
     93 H93        28.5822  -47.5183  -58.5365 H         1 UNK         0.0790 
     94 H94        27.6457  -47.4009  -60.0201 H         1 UNK         0.0790 
     95 H95        28.4003  -48.9251  -59.5815 H         1 UNK         0.0790 
     96 H96        27.9459  -49.5490  -57.1782 H         1 UNK         0.3215 
     97 H97        25.8301  -51.1022  -54.7326 H         1 UNK         0.0863 
     98 H98        27.4973  -52.9010  -55.1605 H         1 UNK         0.0808 
     99 H99        27.9282  -52.1630  -56.7029 H         1 UNK         0.0808 
    100 H100       26.3160  -52.8117  -56.4559 H         1 UNK         0.0808 
    101 H101       28.6679  -50.4256  -55.0421 H         1 UNK         0.3118 
    102 H102       28.5387  -47.6115  -52.9104 H         1 UNK         0.0546 
    103 H103       29.6038  -50.4170  -52.2658 H         1 UNK         0.0828 
    104 H104       28.5214  -49.4785  -51.2456 H         1 UNK         0.0828 
    105 H105       30.1603  -48.9156  -51.5380 H         1 UNK         0.0828 
    106 H106       30.7822  -48.9596  -53.9467 H         1 UNK         0.3005 
    107 H107       30.6976  -47.5859  -57.2563 H         1 UNK         0.1257 
    108 H108       31.8343  -46.0816  -55.3381 H         1 UNK         0.0775 
    109 H109       32.8861  -47.4476  -55.1389 H         1 UNK         0.0775 
    110 H110       34.6431  -44.8803  -56.2496 H         1 UNK         0.0840 
    111 H111       34.1506  -44.2978  -57.8189 H         1 UNK         0.0840 
    112 H112       32.4833  -49.4811  -56.1261 H         1 UNK         0.2987 
    113 H113       30.6207  -52.4314  -56.8810 H         1 UNK         0.0785 
    114 H114       31.7787  -51.8775  -58.9703 H         1 UNK         0.0798 
    115 H115       32.7730  -52.9724  -58.0228 H         1 UNK         0.0798 
    116 H116       33.1713  -51.2567  -58.1038 H         1 UNK         0.0798 
    117 H117       31.6162  -52.6353  -54.9397 H         1 UNK         0.3079 
    118 H118       32.6818  -52.0891  -53.0789 H         1 UNK         0.0794 
    119 H119       34.8007  -53.2892  -52.5381 H         1 UNK         0.0786 
    120 H120       35.5151  -52.7616  -54.0627 H         1 UNK         0.0786 
    121 H121       34.1516  -53.8709  -54.0617 H         1 UNK         0.0786 
    122 H122       35.1509  -50.7706  -52.6178 H         1 UNK         0.3032 
    123 H123       34.9112  -48.7916  -51.1759 H         1 UNK         0.1094 
    124 H124       36.1575  -47.1393  -52.6181 H         1 UNK         0.0794 
    125 H125       36.1611  -48.7129  -53.3856 H         1 UNK         0.0794 
    126 H126       35.0664  -47.4658  -53.9616 H         1 UNK         0.0794 
    127 H127       32.6370  -47.3276  -52.0877 H         1 UNK         0.3016 
@<TRIPOS>BOND
     1    1    2 1    
     2    1   67 1    
     3    1   68 1    
     4    1   69 1    
     5    2    3 2    
     6    2    4 am   BACKBONE|DICT|INTERRES
     7    4    5 1    
     8    4   70 1    
     9    5    6 1    
    10    5   65 1    
    11    5   71 1    
    12    6    7 1    
    13    6   72 1    
    14    6   73 1    
    15    7    8 1    
    16    8    9 1    
    17    8   74 1    
    18    8   75 1    
    19    9   10 ar   
    20    9   14 ar   
    21   10   11 ar   
    22   10   76 1    
    23   11   12 ar   
    24   11   48 1    
    25   12   13 ar   
    26   12   77 1    
    27   13   14 ar   
    28   13   15 1    
    29   14   78 1    
    30   15   16 1    
    31   15   79 1    
    32   15   80 1    
    33   16   17 1    
    34   17   18 1    
    35   17   81 1    
    36   17   82 1    
    37   18   19 1    
    38   18   22 1    
    39   18   83 1    
    40   19   20 am   BACKBONE|DICT|INTERRES
    41   19   21 2    
    42   20   84 1    
    43   20   85 1    
    44   22   23 am   BACKBONE|DICT|INTERRES
    45   22   86 1    
    46   23   24 2    
    47   23   25 1    
    48   25   26 1    
    49   25   27 1    
    50   25   87 1    
    51   26   88 1    
    52   26   89 1    
    53   26   90 1    
    54   27   28 am   BACKBONE|DICT|INTERRES
    55   27   91 1    
    56   28   29 2    
    57   28   30 1    
    58   30   31 1    
    59   30   32 1    
    60   30   92 1    
    61   31   93 1    
    62   31   94 1    
    63   31   95 1    
    64   32   33 am   BACKBONE|DICT|INTERRES
    65   32   96 1    
    66   33   34 2    
    67   33   35 1    
    68   35   36 1    
    69   35   37 1    
    70   35   97 1    
    71   36   98 1    
    72   36   99 1    
    73   36  100 1    
    74   37   38 am   BACKBONE|DICT|INTERRES
    75   37  101 1    
    76   38   39 2    
    77   38   40 1    
    78   40   41 1    
    79   40   42 1    
    80   40  102 1    
    81   41  103 1    
    82   41  104 1    
    83   41  105 1    
    84   42   43 am   BACKBONE|DICT|INTERRES
    85   42  106 1    
    86   43   44 2    
    87   43   45 1    
    88   45   46 1    
    89   45   49 1    
    90   45  107 1    
    91   46   47 1    
    92   46  108 1    
    93   46  109 1    
    94   47   48 1    
    95   48  110 1    
    96   48  111 1    
    97   49   50 am   BACKBONE|DICT|INTERRES
    98   49  112 1    
    99   50   51 2    
   100   50   52 1    
   101   52   53 1    
   102   52   54 1    
   103   52  113 1    
   104   53  114 1    
   105   53  115 1    
   106   53  116 1    
   107   54   55 am   BACKBONE|DICT|INTERRES
   108   54  117 1    
   109   55   56 2    
   110   55   57 1    
   111   57   58 1    
   112   57   59 1    
   113   57  118 1    
   114   58  119 1    
   115   58  120 1    
   116   58  121 1    
   117   59   60 am   BACKBONE|DICT|INTERRES
   118   59  122 1    
   119   60   61 2    
   120   60   62 1    
   121   62   63 1    
   122   62   64 1    
   123   62  123 1    
   124   63  124 1    
   125   63  125 1    
   126   63  126 1    
   127   64   65 am   BACKBONE|DICT|INTERRES
   128   64  127 1    
   129   65   66 2    
@<TRIPOS>SUBSTRUCTURE
     1 UNK         1 GROUP             0       ****    0 ROOT    
