@<TRIPOS>MOLECULE
3R134
127   129    1
SMALL
USER_CHARGES


@<TRIPOS>ATOM
      1 CA         32.3422  -45.0315  -58.1023 C.3       0 UNK        -0.1968 
      2 C          32.9286  -45.5580  -56.8017 C.2       0 UNK         0.4852 
      3 O          32.6198  -46.6790  -56.3995 O.2       0 UNK        -0.5359 
      4 N          33.7962  -44.7613  -56.1615 N.am      1 UNK        -0.4300 
      5 CA         34.4185  -45.0081  -54.8507 C.3       1 UNK         0.0863 
      6 C6         35.2126  -43.7566  -54.3909 C.3       11 UNK        -0.0953 
      7 S7         35.2485  -43.5552  -52.5784 S.3       11 UNK        -0.2369 
      8 C8         34.0915  -42.1732  -52.3290 C.3       11 UNK         0.0226 
      9 C9         32.6383  -42.6260  -52.3504 C.ar      11 UNK        -0.0699 
     10 C10        32.0330  -43.0722  -51.1715 C.ar      11 UNK        -0.0804 
     11 C11        30.6802  -43.4248  -51.1543 C.ar      11 UNK        -0.0871 
     12 C12        29.9336  -43.3358  -52.3318 C.ar      11 UNK        -0.1008 
     13 C13        30.5317  -42.9120  -53.5219 C.ar      11 UNK        -0.0735 
     14 C14        31.8850  -42.5580  -53.5275 C.ar      11 UNK        -0.0945 
     15 C15        29.6952  -42.8023  -54.7859 C.3       11 UNK         0.0169 
     16 S16        29.5255  -44.4100  -55.6194 S.3       11 UNK        -0.2669 
     17 C17        28.2320  -44.0035  -56.8399 C.3       11 UNK        -0.0850 
     18 CA         27.3393  -45.2303  -57.1873 C.3       10 UNK         0.0855 
     19 C          25.9921  -44.8605  -57.8676 C.2       10 UNK         0.5543 
     20 N          25.1249  -45.8410  -58.0837 N.am      10 UNK        -0.7343 
     21 O          25.7262  -43.7066  -58.1973 O.2       10 UNK        -0.5027 
     22 N          28.0288  -46.2996  -57.9280 N.am      10 UNK        -0.4495 
     23 C          28.6012  -46.1979  -59.1375 C.2       10 UNK         0.4903 
     24 O          28.7822  -45.1385  -59.7373 O.2       10 UNK        -0.4860 
     25 CA         29.0200  -47.5164  -59.8160 C.3       9 UNK         0.0227 
     26 CB         30.3990  -47.9739  -59.3162 C.3       9 UNK        -0.1964 
     27 N          28.0419  -48.5851  -59.6022 N.am      9 UNK        -0.4231 
     28 C          26.8044  -48.6033  -60.1208 C.2       9 UNK         0.5014 
     29 O          26.3983  -47.7894  -60.9511 O.2       9 UNK        -0.5270 
     30 CA         25.8458  -49.7050  -59.6243 C.3       8 UNK         0.0284 
     31 CB         25.7432  -50.8351  -60.6620 C.3       8 UNK        -0.1977 
     32 N          26.1963  -50.2800  -58.3185 N.am      8 UNK        -0.4342 
     33 C          26.2680  -49.5989  -57.1667 C.2       8 UNK         0.5039 
     34 O          26.0612  -48.3858  -57.0788 O.2       8 UNK        -0.5547 
     35 CA         26.7156  -50.4042  -55.9351 C.3       7 UNK         0.0281 
     36 CB         28.2025  -50.7825  -56.0575 C.3       7 UNK        -0.1963 
     37 N          26.5039  -49.6633  -54.6871 N.am      7 UNK        -0.4444 
     38 C          25.2993  -49.4633  -54.1300 C.2       7 UNK         0.5104 
     39 O          24.2587  -49.9370  -54.5909 O.2       7 UNK        -0.5100 
     40 CA         25.2161  -48.6322  -52.8336 C.3       6 UNK         0.0396 
     41 CB         24.5195  -49.4325  -51.7185 C.3       6 UNK        -0.1801 
     42 N          26.5221  -48.1949  -52.3376 N.am      6 UNK        -0.4747 
     43 C          27.0854  -47.0002  -52.5670 C.2       6 UNK         0.5012 
     44 O          26.5574  -46.1074  -53.2300 O.2       6 UNK        -0.5003 
     45 CA         28.4768  -46.7614  -51.9365 C.3       5 UNK         0.0782 
     46 C46        28.3138  -46.0173  -50.5866 C.3       11 UNK        -0.0868 
     47 S47        29.8977  -45.6788  -49.7402 S.3       11 UNK        -0.2515 
     48 C48        30.0229  -43.8665  -49.8552 C.3       11 UNK         0.0199 
     49 N          29.2744  -47.9883  -51.7855 N.am      5 UNK        -0.4607 
     50 C          29.6404  -48.7988  -52.7845 C.2       4 UNK         0.5031 
     51 O          29.2511  -48.6677  -53.9456 O.2       4 UNK        -0.5119 
     52 CA         30.5402  -49.9888  -52.4093 C.3       4 UNK         0.0263 
     53 CB         29.6837  -51.1921  -51.9810 C.3       4 UNK        -0.1967 
     54 N          31.3961  -50.3804  -53.5318 N.am      4 UNK        -0.4237 
     55 C          32.3942  -49.6255  -54.0101 C.2       3 UNK         0.4908 
     56 O          32.7914  -48.5979  -53.4549 O.2       3 UNK        -0.5102 
     57 CA         33.0403  -50.1052  -55.3220 C.3       3 UNK         0.0241 
     58 CB         31.9938  -50.2098  -56.4470 C.3       3 UNK        -0.1971 
     59 N          34.0688  -49.1545  -55.7411 N.am      3 UNK        -0.4139 
     60 C          35.3914  -49.3542  -55.6686 C.2       2 UNK         0.5016 
     61 O          35.9060  -50.4206  -55.3277 O.2       2 UNK        -0.5319 
     62 CA         36.3091  -48.1709  -56.0408 C.3       2 UNK         0.0286 
     63 CB         36.8478  -48.3374  -57.4711 C.3       2 UNK        -0.1963 
     64 N          35.6508  -46.8661  -55.9287 N.am      2 UNK        -0.4790 
     65 C          35.2864  -46.2906  -54.7728 C.2       1 UNK         0.5024 
     66 O          35.6080  -46.7420  -53.6731 O.2       1 UNK        -0.4888 
     67 H67        32.5457  -43.9700  -58.2409 H         1 UNK         0.0892 
     68 H68        32.7600  -45.5728  -58.9501 H         1 UNK         0.0892 
     69 H69        31.2613  -45.1655  -58.1043 H         1 UNK         0.0892 
     70 H70        34.0257  -43.8714  -56.5800 H         1 UNK         0.3107 
     71 H71        33.5858  -45.1631  -54.1604 H         1 UNK         0.0773 
     72 H72        36.2393  -43.7809  -54.7617 H         1 UNK         0.0680 
     73 H73        34.7799  -42.8511  -54.8180 H         1 UNK         0.0680 
     74 H74        34.2655  -41.3961  -53.0747 H         1 UNK         0.0650 
     75 H75        34.3121  -41.7119  -51.3652 H         1 UNK         0.0650 
     76 H76        32.6146  -43.1271  -50.2611 H         1 UNK         0.1397 
     77 H77        28.8836  -43.5937  -52.3257 H         1 UNK         0.1363 
     78 H78        32.3461  -42.2132  -54.4426 H         1 UNK         0.1355 
     79 H79        28.7088  -42.4148  -54.5264 H         1 UNK         0.0707 
     80 H80        30.1370  -42.0836  -55.4780 H         1 UNK         0.0707 
     81 H81        27.6109  -43.2105  -56.4203 H         1 UNK         0.1034 
     82 H82        28.6935  -43.5739  -57.7291 H         1 UNK         0.1034 
     83 H83        27.0476  -45.6786  -56.2358 H         1 UNK         0.0482 
     84 H84        24.2418  -45.6439  -58.5254 H         1 UNK         0.3460 
     85 H85        25.3532  -46.7858  -57.7814 H         1 UNK         0.3460 
     86 H86        27.8527  -47.2260  -57.5625 H         1 UNK         0.2989 
     87 H87        29.0904  -47.3386  -60.8913 H         1 UNK         0.0559 
     88 H88        31.1698  -47.2650  -59.6164 H         1 UNK         0.0848 
     89 H89        30.4310  -48.0466  -58.2289 H         1 UNK         0.0848 
     90 H90        30.6783  -48.9428  -59.7303 H         1 UNK         0.0848 
     91 H91        28.2908  -49.3118  -58.9485 H         1 UNK         0.3144 
     92 H92        24.8605  -49.2452  -59.5219 H         1 UNK         0.0727 
     93 H93        24.9919  -51.5715  -60.3761 H         1 UNK         0.0790 
     94 H94        26.6940  -51.3543  -60.7897 H         1 UNK         0.0790 
     95 H95        25.4529  -50.4436  -61.6383 H         1 UNK         0.0790 
     96 H96        26.3882  -51.2720  -58.3047 H         1 UNK         0.3215 
     97 H97        26.1247  -51.3219  -55.8926 H         1 UNK         0.0863 
     98 H98        28.5560  -51.2994  -55.1660 H         1 UNK         0.0808 
     99 H99        28.8307  -49.9033  -56.2058 H         1 UNK         0.0808 
    100 H100       28.3759  -51.4505  -56.9017 H         1 UNK         0.0808 
    101 H101       27.3152  -49.1940  -54.2975 H         1 UNK         0.3118 
    102 H102       24.5980  -47.7598  -53.0549 H         1 UNK         0.0546 
    103 H103       23.5125  -49.7282  -52.0159 H         1 UNK         0.0828 
    104 H104       24.4223  -48.8418  -50.8074 H         1 UNK         0.0828 
    105 H105       25.0667  -50.3433  -51.4722 H         1 UNK         0.0828 
    106 H106       27.0430  -48.8643  -51.7891 H         1 UNK         0.3005 
    107 H107       29.0237  -46.1149  -52.6269 H         1 UNK         0.1257 
    108 H108       27.7030  -46.6091  -49.9018 H         1 UNK         0.0775 
    109 H109       27.7702  -45.0821  -50.7313 H         1 UNK         0.0775 
    110 H110       29.0394  -43.4062  -49.7503 H         1 UNK         0.0840 
    111 H111       30.6061  -43.5098  -49.0047 H         1 UNK         0.0840 
    112 H112       29.6338  -48.1599  -50.8573 H         1 UNK         0.2987 
    113 H113       31.1816  -49.6967  -51.5748 H         1 UNK         0.0785 
    114 H114       29.0710  -50.9472  -51.1124 H         1 UNK         0.0798 
    115 H115       30.3057  -52.0437  -51.7043 H         1 UNK         0.0798 
    116 H116       29.0079  -51.5134  -52.7742 H         1 UNK         0.0798 
    117 H117       31.1139  -51.1987  -54.0501 H         1 UNK         0.3079 
    118 H118       33.4759  -51.0912  -55.1486 H         1 UNK         0.0794 
    119 H119       31.2843  -51.0158  -56.2596 H         1 UNK         0.0786 
    120 H120       32.4619  -50.4133  -57.4104 H         1 UNK         0.0786 
    121 H121       31.4230  -49.2856  -56.5403 H         1 UNK         0.0786 
    122 H122       33.7240  -48.2217  -55.9573 H         1 UNK         0.3032 
    123 H123       37.1548  -48.1876  -55.3494 H         1 UNK         0.1094 
    124 H124       37.5564  -47.5483  -57.7236 H         1 UNK         0.0794 
    125 H125       37.3716  -49.2881  -57.5820 H         1 UNK         0.0794 
    126 H126       36.0453  -48.3199  -58.2097 H         1 UNK         0.0794 
    127 H127       35.3484  -46.4313  -56.7883 H         1 UNK         0.3016 
@<TRIPOS>BOND
     1    1    2 1    
     2    1   67 1    
     3    1   68 1    
     4    1   69 1    
     5    2    3 2    
     6    2    4 am   BACKBONE|DICT|INTERRES
     7    4    5 1    
     8    4   70 1    
     9    5    6 1    
    10    5   65 1    
    11    5   71 1    
    12    6    7 1    
    13    6   72 1    
    14    6   73 1    
    15    7    8 1    
    16    8    9 1    
    17    8   74 1    
    18    8   75 1    
    19    9   10 ar   
    20    9   14 ar   
    21   10   11 ar   
    22   10   76 1    
    23   11   12 ar   
    24   11   48 1    
    25   12   13 ar   
    26   12   77 1    
    27   13   14 ar   
    28   13   15 1    
    29   14   78 1    
    30   15   16 1    
    31   15   79 1    
    32   15   80 1    
    33   16   17 1    
    34   17   18 1    
    35   17   81 1    
    36   17   82 1    
    37   18   19 1    
    38   18   22 1    
    39   18   83 1    
    40   19   20 am   BACKBONE|DICT|INTERRES
    41   19   21 2    
    42   20   84 1    
    43   20   85 1    
    44   22   23 am   BACKBONE|DICT|INTERRES
    45   22   86 1    
    46   23   24 2    
    47   23   25 1    
    48   25   26 1    
    49   25   27 1    
    50   25   87 1    
    51   26   88 1    
    52   26   89 1    
    53   26   90 1    
    54   27   28 am   BACKBONE|DICT|INTERRES
    55   27   91 1    
    56   28   29 2    
    57   28   30 1    
    58   30   31 1    
    59   30   32 1    
    60   30   92 1    
    61   31   93 1    
    62   31   94 1    
    63   31   95 1    
    64   32   33 am   BACKBONE|DICT|INTERRES
    65   32   96 1    
    66   33   34 2    
    67   33   35 1    
    68   35   36 1    
    69   35   37 1    
    70   35   97 1    
    71   36   98 1    
    72   36   99 1    
    73   36  100 1    
    74   37   38 am   BACKBONE|DICT|INTERRES
    75   37  101 1    
    76   38   39 2    
    77   38   40 1    
    78   40   41 1    
    79   40   42 1    
    80   40  102 1    
    81   41  103 1    
    82   41  104 1    
    83   41  105 1    
    84   42   43 am   BACKBONE|DICT|INTERRES
    85   42  106 1    
    86   43   44 2    
    87   43   45 1    
    88   45   46 1    
    89   45   49 1    
    90   45  107 1    
    91   46   47 1    
    92   46  108 1    
    93   46  109 1    
    94   47   48 1    
    95   48  110 1    
    96   48  111 1    
    97   49   50 am   BACKBONE|DICT|INTERRES
    98   49  112 1    
    99   50   51 2    
   100   50   52 1    
   101   52   53 1    
   102   52   54 1    
   103   52  113 1    
   104   53  114 1    
   105   53  115 1    
   106   53  116 1    
   107   54   55 am   BACKBONE|DICT|INTERRES
   108   54  117 1    
   109   55   56 2    
   110   55   57 1    
   111   57   58 1    
   112   57   59 1    
   113   57  118 1    
   114   58  119 1    
   115   58  120 1    
   116   58  121 1    
   117   59   60 am   BACKBONE|DICT|INTERRES
   118   59  122 1    
   119   60   61 2    
   120   60   62 1    
   121   62   63 1    
   122   62   64 1    
   123   62  123 1    
   124   63  124 1    
   125   63  125 1    
   126   63  126 1    
   127   64   65 am   BACKBONE|DICT|INTERRES
   128   64  127 1    
   129   65   66 2    
@<TRIPOS>SUBSTRUCTURE
     1 UNK         1 GROUP             0       ****    0 ROOT    
