@<TRIPOS>MOLECULE
3R134
127   129    1
SMALL
USER_CHARGES


@<TRIPOS>ATOM
      1 CA         32.7823  -42.0648  -48.4375 C.3       0 UNK        -0.1968 
      2 C          33.8079  -42.8020  -49.2864 C.2       0 UNK         0.4852 
      3 O          35.0012  -42.7517  -48.9833 O.2       0 UNK        -0.5359 
      4 N          33.3541  -43.4788  -50.3496 N.am      1 UNK        -0.4300 
      5 CA         34.1833  -44.2984  -51.2361 C.3       1 UNK         0.0863 
      6 C6         33.4432  -44.6007  -52.5611 C.3       11 UNK        -0.0953 
      7 S7         34.5312  -45.2785  -53.8607 S.3       11 UNK        -0.2369 
      8 C8         33.9319  -44.4109  -55.3455 C.3       11 UNK         0.0226 
      9 C9         32.6495  -45.0160  -55.9070 C.ar      11 UNK        -0.0699 
     10 C10        32.6941  -45.8288  -57.0457 C.ar      11 UNK        -0.0804 
     11 C11        31.5147  -46.3139  -57.6214 C.ar      11 UNK        -0.0871 
     12 C12        30.2864  -46.0003  -57.0354 C.ar      11 UNK        -0.1008 
     13 C13        30.2296  -45.2219  -55.8764 C.ar      11 UNK        -0.0735 
     14 C14        31.4119  -44.7213  -55.3254 C.ar      11 UNK        -0.0945 
     15 C15        28.8852  -44.8857  -55.2520 C.3       11 UNK         0.0169 
     16 S16        27.9615  -46.3879  -54.8026 S.3       11 UNK        -0.2669 
     17 C17        26.2667  -45.7274  -54.6570 C.3       11 UNK        -0.0850 
     18 CA         25.4029  -46.0718  -55.9044 C.3       10 UNK         0.0855 
     19 C          23.8735  -45.8577  -55.6822 C.2       10 UNK         0.5543 
     20 N          23.0935  -45.5340  -56.7083 N.am      10 UNK        -0.7343 
     21 O          23.3751  -46.0231  -54.5718 O.2       10 UNK        -0.5027 
     22 N          25.9254  -45.4887  -57.1523 N.am      10 UNK        -0.4495 
     23 C          25.9427  -44.1871  -57.4774 C.2       10 UNK         0.4903 
     24 O          25.6299  -43.2792  -56.7070 O.2       10 UNK        -0.4860 
     25 CA         26.3568  -43.8305  -58.9192 C.3       9 UNK         0.0227 
     26 CB         27.8397  -43.4269  -58.9648 C.3       9 UNK        -0.1964 
     27 N          26.1198  -44.9088  -59.8853 N.am      9 UNK        -0.4231 
     28 C          24.9292  -45.4607  -60.1613 C.2       9 UNK         0.5014 
     29 O          23.8609  -45.0618  -59.6937 O.2       9 UNK        -0.5270 
     30 CA         24.9324  -46.7254  -61.0400 C.3       8 UNK         0.0284 
     31 CB         26.1635  -46.8438  -61.9687 C.3       8 UNK        -0.1977 
     32 N          24.7792  -47.9331  -60.2165 N.am      8 UNK        -0.4342 
     33 C          25.5783  -48.3249  -59.2137 C.2       8 UNK         0.5039 
     34 O          26.6059  -47.7275  -58.8701 O.2       8 UNK        -0.5547 
     35 CA         25.1583  -49.5853  -58.4498 C.3       7 UNK         0.0281 
     36 CB         25.4359  -50.8577  -59.2708 C.3       7 UNK        -0.1963 
     37 N          25.9365  -49.6100  -57.2198 N.am      7 UNK        -0.4444 
     38 C          25.6515  -50.2501  -56.0833 C.2       7 UNK         0.5104 
     39 O          24.6464  -50.9443  -55.9235 O.2       7 UNK        -0.5100 
     40 CA         26.6616  -50.0614  -54.9297 C.3       6 UNK         0.0396 
     41 CB         26.6560  -51.2394  -53.9336 C.3       6 UNK        -0.1801 
     42 N          28.0292  -49.7683  -55.3883 N.am      6 UNK        -0.4747 
     43 C          28.8147  -50.5511  -56.1483 C.2       6 UNK         0.5012 
     44 O          28.4893  -51.6692  -56.5488 O.2       6 UNK        -0.5003 
     45 CA         30.1926  -49.9886  -56.5502 C.3       5 UNK         0.0782 
     46 C46        30.1476  -49.4233  -57.9907 C.3       11 UNK        -0.0868 
     47 S47        31.7972  -48.9106  -58.5825 S.3       11 UNK        -0.2515 
     48 C48        31.5635  -47.1340  -58.9029 C.3       11 UNK         0.0199 
     49 N          30.7178  -49.0165  -55.5841 N.am      5 UNK        -0.4607 
     50 C          31.1887  -49.3487  -54.3775 C.2       4 UNK         0.5031 
     51 O          31.1512  -50.4914  -53.9146 O.2       4 UNK        -0.5119 
     52 CA         31.8088  -48.2175  -53.5418 C.3       4 UNK         0.0263 
     53 CB         30.8539  -47.8097  -52.4071 C.3       4 UNK        -0.1967 
     54 N          33.0951  -48.6192  -52.9669 N.am      4 UNK        -0.4237 
     55 C          34.1788  -48.9748  -53.6733 C.2       3 UNK         0.4908 
     56 O          34.2434  -48.9428  -54.9033 O.2       3 UNK        -0.5102 
     57 CA         35.4034  -49.3967  -52.8512 C.3       3 UNK         0.0241 
     58 CB         36.6098  -49.8101  -53.7173 C.3       3 UNK        -0.1971 
     59 N          35.7844  -48.2904  -51.9786 N.am      3 UNK        -0.4139 
     60 C          36.1750  -48.4032  -50.7040 C.2       2 UNK         0.5016 
     61 O          36.2818  -49.4776  -50.1113 O.2       2 UNK        -0.5319 
     62 CA         36.5086  -47.0985  -49.9569 C.3       2 UNK         0.0286 
     63 CB         38.0317  -46.9090  -49.8640 C.3       2 UNK        -0.1963 
     64 N          35.9152  -45.9028  -50.5665 N.am      2 UNK        -0.4790 
     65 C          34.6135  -45.5898  -50.5114 C.2       1 UNK         0.5024 
     66 O          33.7660  -46.2813  -49.9418 O.2       1 UNK        -0.4888 
     67 H67        33.0127  -41.0001  -48.4111 H         1 UNK         0.0892 
     68 H68        31.7705  -42.1829  -48.8249 H         1 UNK         0.0892 
     69 H69        32.8001  -42.4430  -47.4157 H         1 UNK         0.0892 
     70 H70        32.3604  -43.5104  -50.5266 H         1 UNK         0.3107 
     71 H71        35.0757  -43.7148  -51.4745 H         1 UNK         0.0773 
     72 H72        33.0091  -43.6720  -52.9323 H         1 UNK         0.0680 
     73 H73        32.6077  -45.2831  -52.4064 H         1 UNK         0.0680 
     74 H74        33.7817  -43.3532  -55.1254 H         1 UNK         0.0650 
     75 H75        34.7197  -44.4474  -56.0993 H         1 UNK         0.0650 
     76 H76        33.6463  -46.0611  -57.5029 H         1 UNK         0.1397 
     77 H77        29.3667  -46.3557  -57.4804 H         1 UNK         0.1363 
     78 H78        31.3642  -44.0869  -54.4527 H         1 UNK         0.1355 
     79 H79        28.3165  -44.2907  -55.9642 H         1 UNK         0.0707 
     80 H80        29.0071  -44.2687  -54.3605 H         1 UNK         0.0707 
     81 H81        26.2879  -44.6514  -54.4782 H         1 UNK         0.1034 
     82 H82        25.8350  -46.1693  -53.7574 H         1 UNK         0.1034 
     83 H83        25.4845  -47.1477  -56.0486 H         1 UNK         0.0482 
     84 H84        23.4786  -45.3881  -57.6336 H         1 UNK         0.3460 
     85 H85        22.1058  -45.4103  -56.5529 H         1 UNK         0.3460 
     86 H86        26.2199  -46.1642  -57.8530 H         1 UNK         0.2989 
     87 H87        25.7565  -42.9728  -59.2290 H         1 UNK         0.0559 
     88 H88        28.1264  -43.0755  -59.9560 H         1 UNK         0.0848 
     89 H89        28.4938  -44.2583  -58.7004 H         1 UNK         0.0848 
     90 H90        28.0461  -42.6165  -58.2641 H         1 UNK         0.0848 
     91 H91        26.9377  -45.3535  -60.2767 H         1 UNK         0.3144 
     92 H92        24.0470  -46.6605  -61.6745 H         1 UNK         0.0727 
     93 H93        26.0495  -47.6821  -62.6561 H         1 UNK         0.0790 
     94 H94        27.0930  -46.9999  -61.4203 H         1 UNK         0.0790 
     95 H95        26.2837  -45.9470  -62.5781 H         1 UNK         0.0790 
     96 H96        23.9451  -48.4747  -60.3987 H         1 UNK         0.3215 
     97 H97        24.0961  -49.5150  -58.2058 H         1 UNK         0.0863 
     98 H98        25.1538  -51.7550  -58.7197 H         1 UNK         0.0808 
     99 H99        26.4922  -50.9449  -59.5294 H         1 UNK         0.0808 
    100 H100       24.8686  -50.8601  -60.2021 H         1 UNK         0.0808 
    101 H101       26.7550  -49.0139  -57.2600 H         1 UNK         0.3118 
    102 H102       26.3317  -49.1742  -54.3873 H         1 UNK         0.0546 
    103 H103       26.9045  -52.1830  -54.4200 H         1 UNK         0.0828 
    104 H104       25.6737  -51.3603  -53.4756 H         1 UNK         0.0828 
    105 H105       27.3708  -51.0795  -53.1264 H         1 UNK         0.0828 
    106 H106       28.3912  -48.8605  -55.1235 H         1 UNK         0.3005 
    107 H107       30.8764  -50.8412  -56.5549 H         1 UNK         0.1257 
    108 H108       29.7806  -50.1832  -58.6837 H         1 UNK         0.0775 
    109 H109       29.4425  -48.5943  -58.0631 H         1 UNK         0.0775 
    110 H110       32.3862  -46.7830  -59.5276 H         1 UNK         0.0840 
    111 H111       30.6572  -46.9828  -59.4919 H         1 UNK         0.0840 
    112 H112       30.8123  -48.0640  -55.9113 H         1 UNK         0.2987 
    113 H113       31.9885  -47.3519  -54.1821 H         1 UNK         0.0785 
    114 H114       30.5988  -48.6589  -51.7715 H         1 UNK         0.0798 
    115 H115       31.2852  -47.0393  -51.7693 H         1 UNK         0.0798 
    116 H116       29.9211  -47.4130  -52.8076 H         1 UNK         0.0798 
    117 H117       33.1378  -48.6797  -51.9599 H         1 UNK         0.3079 
    118 H118       35.0976  -50.2594  -52.2551 H         1 UNK         0.0794 
    119 H119       36.3501  -50.6358  -54.3810 H         1 UNK         0.0786 
    120 H120       37.4448  -50.1413  -53.0996 H         1 UNK         0.0786 
    121 H121       36.9599  -48.9856  -54.3397 H         1 UNK         0.0786 
    122 H122       35.6971  -47.3636  -52.3742 H         1 UNK         0.3032 
    123 H123       36.1132  -47.1988  -48.9432 H         1 UNK         0.1094 
    124 H124       38.5035  -47.7684  -49.3852 H         1 UNK         0.0794 
    125 H125       38.4863  -46.7951  -50.8490 H         1 UNK         0.0794 
    126 H126       38.2874  -46.0306  -49.2708 H         1 UNK         0.0794 
    127 H127       36.5466  -45.2802  -51.0515 H         1 UNK         0.3016 
@<TRIPOS>BOND
     1    1    2 1    
     2    1   67 1    
     3    1   68 1    
     4    1   69 1    
     5    2    3 2    
     6    2    4 am   BACKBONE|DICT|INTERRES
     7    4    5 1    
     8    4   70 1    
     9    5    6 1    
    10    5   65 1    
    11    5   71 1    
    12    6    7 1    
    13    6   72 1    
    14    6   73 1    
    15    7    8 1    
    16    8    9 1    
    17    8   74 1    
    18    8   75 1    
    19    9   10 ar   
    20    9   14 ar   
    21   10   11 ar   
    22   10   76 1    
    23   11   12 ar   
    24   11   48 1    
    25   12   13 ar   
    26   12   77 1    
    27   13   14 ar   
    28   13   15 1    
    29   14   78 1    
    30   15   16 1    
    31   15   79 1    
    32   15   80 1    
    33   16   17 1    
    34   17   18 1    
    35   17   81 1    
    36   17   82 1    
    37   18   19 1    
    38   18   22 1    
    39   18   83 1    
    40   19   20 am   BACKBONE|DICT|INTERRES
    41   19   21 2    
    42   20   84 1    
    43   20   85 1    
    44   22   23 am   BACKBONE|DICT|INTERRES
    45   22   86 1    
    46   23   24 2    
    47   23   25 1    
    48   25   26 1    
    49   25   27 1    
    50   25   87 1    
    51   26   88 1    
    52   26   89 1    
    53   26   90 1    
    54   27   28 am   BACKBONE|DICT|INTERRES
    55   27   91 1    
    56   28   29 2    
    57   28   30 1    
    58   30   31 1    
    59   30   32 1    
    60   30   92 1    
    61   31   93 1    
    62   31   94 1    
    63   31   95 1    
    64   32   33 am   BACKBONE|DICT|INTERRES
    65   32   96 1    
    66   33   34 2    
    67   33   35 1    
    68   35   36 1    
    69   35   37 1    
    70   35   97 1    
    71   36   98 1    
    72   36   99 1    
    73   36  100 1    
    74   37   38 am   BACKBONE|DICT|INTERRES
    75   37  101 1    
    76   38   39 2    
    77   38   40 1    
    78   40   41 1    
    79   40   42 1    
    80   40  102 1    
    81   41  103 1    
    82   41  104 1    
    83   41  105 1    
    84   42   43 am   BACKBONE|DICT|INTERRES
    85   42  106 1    
    86   43   44 2    
    87   43   45 1    
    88   45   46 1    
    89   45   49 1    
    90   45  107 1    
    91   46   47 1    
    92   46  108 1    
    93   46  109 1    
    94   47   48 1    
    95   48  110 1    
    96   48  111 1    
    97   49   50 am   BACKBONE|DICT|INTERRES
    98   49  112 1    
    99   50   51 2    
   100   50   52 1    
   101   52   53 1    
   102   52   54 1    
   103   52  113 1    
   104   53  114 1    
   105   53  115 1    
   106   53  116 1    
   107   54   55 am   BACKBONE|DICT|INTERRES
   108   54  117 1    
   109   55   56 2    
   110   55   57 1    
   111   57   58 1    
   112   57   59 1    
   113   57  118 1    
   114   58  119 1    
   115   58  120 1    
   116   58  121 1    
   117   59   60 am   BACKBONE|DICT|INTERRES
   118   59  122 1    
   119   60   61 2    
   120   60   62 1    
   121   62   63 1    
   122   62   64 1    
   123   62  123 1    
   124   63  124 1    
   125   63  125 1    
   126   63  126 1    
   127   64   65 am   BACKBONE|DICT|INTERRES
   128   64  127 1    
   129   65   66 2    
@<TRIPOS>SUBSTRUCTURE
     1 UNK         1 GROUP             0       ****    0 ROOT    
