@<TRIPOS>MOLECULE
3R134
127   129    1
SMALL
USER_CHARGES


@<TRIPOS>ATOM
      1 CA         37.9510  -44.5061  -50.2725 C.3       0 UNK        -0.1968 
      2 C          36.9813  -44.7880  -51.4110 C.2       0 UNK         0.4852 
      3 O          37.4185  -45.0338  -52.5359 O.2       0 UNK        -0.5359 
      4 N          35.6727  -44.7443  -51.1256 N.am      1 UNK        -0.4300 
      5 CA         34.5846  -45.0065  -52.0758 C.3       1 UNK         0.0863 
      6 C6         33.2068  -44.6226  -51.4808 C.3       11 UNK        -0.0953 
      7 S7         33.0460  -42.8132  -51.3106 S.3       11 UNK        -0.2369 
      8 C8         31.3108  -42.5276  -51.8110 C.3       11 UNK         0.0226 
      9 C9         30.9247  -43.0258  -53.2058 C.ar      11 UNK        -0.0699 
     10 C10        31.8628  -43.1968  -54.2324 C.ar      11 UNK        -0.0804 
     11 C11        31.4772  -43.6892  -55.4827 C.ar      11 UNK        -0.0871 
     12 C12        30.1275  -43.9700  -55.7195 C.ar      11 UNK        -0.1008 
     13 C13        29.1757  -43.7842  -54.7142 C.ar      11 UNK        -0.0735 
     14 C14        29.5818  -43.3171  -53.4619 C.ar      11 UNK        -0.0945 
     15 C15        27.7103  -44.1013  -54.9662 C.3       11 UNK         0.0169 
     16 S16        26.7976  -42.6326  -55.5349 S.3       11 UNK        -0.2669 
     17 C17        27.0672  -42.6988  -57.3415 C.3       11 UNK        -0.0850 
     18 CA         25.8227  -43.2319  -58.1003 C.3       10 UNK         0.0855 
     19 C          26.0028  -43.1334  -59.6444 C.2       10 UNK         0.5543 
     20 N          25.8231  -44.2002  -60.4156 N.am      10 UNK        -0.7343 
     21 O          26.3035  -42.0582  -60.1570 O.2       10 UNK        -0.5027 
     22 N          25.4434  -44.5717  -57.6292 N.am      10 UNK        -0.4495 
     23 C          24.1981  -45.0573  -57.5980 C.2       10 UNK         0.4903 
     24 O          23.1989  -44.4099  -57.9152 O.2       10 UNK        -0.4860 
     25 CA         24.0608  -46.5217  -57.1355 C.3       9 UNK         0.0227 
     26 CB         22.7210  -47.1590  -57.5605 C.3       9 UNK        -0.1964 
     27 N          25.1890  -47.3717  -57.5432 N.am      9 UNK        -0.4231 
     28 C          25.6104  -47.6134  -58.7978 C.2       9 UNK         0.5014 
     29 O          25.1185  -47.0815  -59.7943 O.2       9 UNK        -0.5270 
     30 CA         26.7932  -48.5830  -58.9917 C.3       8 UNK         0.0284 
     31 CB         28.0044  -47.8492  -59.5932 C.3       8 UNK        -0.1977 
     32 N          27.1920  -49.2625  -57.7552 N.am      8 UNK        -0.4342 
     33 C          26.5182  -50.2871  -57.2100 C.2       8 UNK         0.5039 
     34 O          25.5434  -50.8153  -57.7465 O.2       8 UNK        -0.5547 
     35 CA         26.9713  -50.8058  -55.8317 C.3       7 UNK         0.0281 
     36 CB         27.6943  -52.1542  -55.9838 C.3       7 UNK        -0.1963 
     37 N          27.8228  -49.8837  -55.0729 N.am      7 UNK        -0.4444 
     38 C          27.4702  -48.6634  -54.6425 C.2       7 UNK         0.5104 
     39 O          26.3614  -48.1631  -54.8368 O.2       7 UNK        -0.5100 
     40 CA         28.5704  -47.8323  -53.9542 C.3       6 UNK         0.0396 
     41 CB         28.7126  -48.2221  -52.4762 C.3       6 UNK        -0.1801 
     42 N          29.8709  -47.9394  -54.6264 N.am      6 UNK        -0.4747 
     43 C          30.0863  -47.5885  -55.9053 C.2       6 UNK         0.5012 
     44 O          29.2123  -47.1161  -56.6318 O.2       6 UNK        -0.5003 
     45 CA         31.4777  -47.8788  -56.4960 C.3       5 UNK         0.0782 
     46 C46        32.4822  -46.7258  -56.2546 C.3       11 UNK        -0.0868 
     47 S47        32.3296  -45.4293  -57.5312 S.3       11 UNK        -0.2515 
     48 C48        32.5338  -43.8943  -56.5651 C.3       11 UNK         0.0199 
     49 N          31.9810  -49.1716  -56.0250 N.am      5 UNK        -0.4607 
     50 C          31.6008  -50.3445  -56.5526 C.2       4 UNK         0.5031 
     51 O          30.8364  -50.4465  -57.5121 O.2       4 UNK        -0.5119 
     52 CA         32.1488  -51.6237  -55.8978 C.3       4 UNK         0.0263 
     53 CB         33.5194  -51.9879  -56.4906 C.3       4 UNK        -0.1967 
     54 N          32.2551  -51.5365  -54.4401 N.am      4 UNK        -0.4237 
     55 C          31.2180  -51.3726  -53.6063 C.2       3 UNK         0.4908 
     56 O          30.0495  -51.2754  -53.9757 O.2       3 UNK        -0.5102 
     57 CA         31.5384  -51.2645  -52.1070 C.3       3 UNK         0.0241 
     58 CB         31.5217  -52.6553  -51.4530 C.3       3 UNK        -0.1971 
     59 N          32.8152  -50.6025  -51.8233 N.am      3 UNK        -0.4139 
     60 C          33.1130  -49.3388  -52.1564 C.2       2 UNK         0.5016 
     61 O          32.3423  -48.6000  -52.7774 O.2       2 UNK        -0.5319 
     62 CA         34.5157  -48.8618  -51.7312 C.3       2 UNK         0.0286 
     63 CB         35.6033  -49.4245  -52.6707 C.3       2 UNK        -0.1963 
     64 N          34.6216  -47.4028  -51.5935 N.am      2 UNK        -0.4790 
     65 C          34.5800  -46.4696  -52.5575 C.2       1 UNK         0.5024 
     66 O          34.5551  -46.7071  -53.7648 O.2       1 UNK        -0.4888 
     67 H67        38.6026  -45.3648  -50.1138 H         1 UNK         0.0892 
     68 H68        38.5740  -43.6455  -50.5148 H         1 UNK         0.0892 
     69 H69        37.4332  -44.2963  -49.3367 H         1 UNK         0.0892 
     70 H70        35.3819  -44.5066  -50.1881 H         1 UNK         0.3107 
     71 H71        34.7620  -44.3883  -52.9589 H         1 UNK         0.0773 
     72 H72        33.0591  -45.0807  -50.5013 H         1 UNK         0.0680 
     73 H73        32.3984  -45.0008  -52.1090 H         1 UNK         0.0680 
     74 H74        30.6691  -42.9975  -51.0640 H         1 UNK         0.0650 
     75 H75        31.1106  -41.4568  -51.7603 H         1 UNK         0.0650 
     76 H76        32.9025  -42.9603  -54.0581 H         1 UNK         0.1397 
     77 H77        29.8196  -44.3486  -56.6839 H         1 UNK         0.1363 
     78 H78        28.8451  -43.1790  -52.6821 H         1 UNK         0.1355 
     79 H79        27.6125  -44.9151  -55.6862 H         1 UNK         0.0707 
     80 H80        27.2493  -44.4602  -54.0448 H         1 UNK         0.0707 
     81 H81        27.3070  -41.6858  -57.6702 H         1 UNK         0.1034 
     82 H82        27.9455  -43.3015  -57.5734 H         1 UNK         0.1034 
     83 H83        24.9996  -42.5534  -57.8680 H         1 UNK         0.0482 
     84 H84        25.5464  -45.0942  -60.0260 H         1 UNK         0.3460 
     85 H85        25.9407  -44.1075  -61.4117 H         1 UNK         0.3460 
     86 H86        26.2015  -45.1853  -57.3735 H         1 UNK         0.2989 
     87 H87        24.0825  -46.4965  -56.0450 H         1 UNK         0.0559 
     88 H88        22.6036  -47.1676  -58.6447 H         1 UNK         0.0848 
     89 H89        21.8754  -46.6086  -57.1463 H         1 UNK         0.0848 
     90 H90        22.6409  -48.1869  -57.2066 H         1 UNK         0.0848 
     91 H91        25.6819  -47.8225  -56.7784 H         1 UNK         0.3144 
     92 H92        26.4745  -49.3413  -59.7101 H         1 UNK         0.0727 
     93 H93        28.2831  -46.9735  -59.0075 H         1 UNK         0.0790 
     94 H94        27.7805  -47.4982  -60.6013 H         1 UNK         0.0790 
     95 H95        28.8755  -48.5012  -59.6631 H         1 UNK         0.0790 
     96 H96        27.9740  -48.8619  -57.2502 H         1 UNK         0.3215 
     97 H97        26.0664  -50.9694  -55.2430 H         1 UNK         0.0863 
     98 H98        27.9019  -52.6046  -55.0131 H         1 UNK         0.0808 
     99 H99        28.6421  -52.0440  -56.5124 H         1 UNK         0.0808 
    100 H100       27.0874  -52.8665  -56.5446 H         1 UNK         0.0808 
    101 H101       28.7428  -50.2364  -54.8143 H         1 UNK         0.3118 
    102 H102       28.2703  -46.7845  -53.9962 H         1 UNK         0.0546 
    103 H103       29.4796  -47.6272  -51.9795 H         1 UNK         0.0828 
    104 H104       28.9745  -49.2732  -52.3597 H         1 UNK         0.0828 
    105 H105       27.7766  -48.0596  -51.9404 H         1 UNK         0.0828 
    106 H106       30.6443  -48.3055  -54.0808 H         1 UNK         0.3005 
    107 H107       31.3375  -47.9681  -57.5766 H         1 UNK         0.1257 
    108 H108       32.3723  -46.3046  -55.2535 H         1 UNK         0.0775 
    109 H109       33.5062  -47.0986  -56.3095 H         1 UNK         0.0775 
    110 H110       33.5341  -43.8997  -56.1287 H         1 UNK         0.0840 
    111 H111       32.5000  -43.0447  -57.2481 H         1 UNK         0.0840 
    112 H112       32.5766  -49.1600  -55.2084 H         1 UNK         0.2987 
    113 H113       31.4513  -52.4321  -56.1286 H         1 UNK         0.0785 
    114 H114       34.2724  -51.2312  -56.2660 H         1 UNK         0.0798 
    115 H115       33.4625  -52.0785  -57.5765 H         1 UNK         0.0798 
    116 H116       33.8772  -52.9435  -56.1068 H         1 UNK         0.0798 
    117 H117       33.1806  -51.6060  -54.0438 H         1 UNK         0.3079 
    118 H118       30.7513  -50.6651  -51.6464 H         1 UNK         0.0794 
    119 H119       32.3100  -53.2984  -51.8464 H         1 UNK         0.0786 
    120 H120       30.5705  -53.1588  -51.6329 H         1 UNK         0.0786 
    121 H121       31.6497  -52.5880  -50.3724 H         1 UNK         0.0786 
    122 H122       33.4999  -51.1467  -51.3178 H         1 UNK         0.3032 
    123 H123       34.7004  -49.2593  -50.7315 H         1 UNK         0.1094 
    124 H124       36.5922  -49.0552  -52.3983 H         1 UNK         0.0794 
    125 H125       35.6418  -50.5131  -52.6199 H         1 UNK         0.0794 
    126 H126       35.4232  -49.1595  -53.7130 H         1 UNK         0.0794 
    127 H127       34.6428  -47.0689  -50.6402 H         1 UNK         0.3016 
@<TRIPOS>BOND
     1    1    2 1    
     2    1   67 1    
     3    1   68 1    
     4    1   69 1    
     5    2    3 2    
     6    2    4 am   BACKBONE|DICT|INTERRES
     7    4    5 1    
     8    4   70 1    
     9    5    6 1    
    10    5   65 1    
    11    5   71 1    
    12    6    7 1    
    13    6   72 1    
    14    6   73 1    
    15    7    8 1    
    16    8    9 1    
    17    8   74 1    
    18    8   75 1    
    19    9   10 ar   
    20    9   14 ar   
    21   10   11 ar   
    22   10   76 1    
    23   11   12 ar   
    24   11   48 1    
    25   12   13 ar   
    26   12   77 1    
    27   13   14 ar   
    28   13   15 1    
    29   14   78 1    
    30   15   16 1    
    31   15   79 1    
    32   15   80 1    
    33   16   17 1    
    34   17   18 1    
    35   17   81 1    
    36   17   82 1    
    37   18   19 1    
    38   18   22 1    
    39   18   83 1    
    40   19   20 am   BACKBONE|DICT|INTERRES
    41   19   21 2    
    42   20   84 1    
    43   20   85 1    
    44   22   23 am   BACKBONE|DICT|INTERRES
    45   22   86 1    
    46   23   24 2    
    47   23   25 1    
    48   25   26 1    
    49   25   27 1    
    50   25   87 1    
    51   26   88 1    
    52   26   89 1    
    53   26   90 1    
    54   27   28 am   BACKBONE|DICT|INTERRES
    55   27   91 1    
    56   28   29 2    
    57   28   30 1    
    58   30   31 1    
    59   30   32 1    
    60   30   92 1    
    61   31   93 1    
    62   31   94 1    
    63   31   95 1    
    64   32   33 am   BACKBONE|DICT|INTERRES
    65   32   96 1    
    66   33   34 2    
    67   33   35 1    
    68   35   36 1    
    69   35   37 1    
    70   35   97 1    
    71   36   98 1    
    72   36   99 1    
    73   36  100 1    
    74   37   38 am   BACKBONE|DICT|INTERRES
    75   37  101 1    
    76   38   39 2    
    77   38   40 1    
    78   40   41 1    
    79   40   42 1    
    80   40  102 1    
    81   41  103 1    
    82   41  104 1    
    83   41  105 1    
    84   42   43 am   BACKBONE|DICT|INTERRES
    85   42  106 1    
    86   43   44 2    
    87   43   45 1    
    88   45   46 1    
    89   45   49 1    
    90   45  107 1    
    91   46   47 1    
    92   46  108 1    
    93   46  109 1    
    94   47   48 1    
    95   48  110 1    
    96   48  111 1    
    97   49   50 am   BACKBONE|DICT|INTERRES
    98   49  112 1    
    99   50   51 2    
   100   50   52 1    
   101   52   53 1    
   102   52   54 1    
   103   52  113 1    
   104   53  114 1    
   105   53  115 1    
   106   53  116 1    
   107   54   55 am   BACKBONE|DICT|INTERRES
   108   54  117 1    
   109   55   56 2    
   110   55   57 1    
   111   57   58 1    
   112   57   59 1    
   113   57  118 1    
   114   58  119 1    
   115   58  120 1    
   116   58  121 1    
   117   59   60 am   BACKBONE|DICT|INTERRES
   118   59  122 1    
   119   60   61 2    
   120   60   62 1    
   121   62   63 1    
   122   62   64 1    
   123   62  123 1    
   124   63  124 1    
   125   63  125 1    
   126   63  126 1    
   127   64   65 am   BACKBONE|DICT|INTERRES
   128   64  127 1    
   129   65   66 2    
@<TRIPOS>SUBSTRUCTURE
     1 UNK         1 GROUP             0       ****    0 ROOT    
