@<TRIPOS>MOLECULE
3R134
127   129    1
SMALL
USER_CHARGES


@<TRIPOS>ATOM
      1 CA         36.6602  -46.8846  -50.8589 C.3       0 UNK        -0.1968 
      2 C          35.2806  -46.4676  -51.3431 C.2       0 UNK         0.4852 
      3 O          34.3735  -47.2980  -51.3893 O.2       0 UNK        -0.5359 
      4 N          35.1050  -45.1819  -51.6793 N.am      1 UNK        -0.4300 
      5 CA         33.9037  -44.5597  -52.2650 C.3       1 UNK         0.0863 
      6 C6         34.2374  -43.1633  -52.8526 C.3       11 UNK        -0.0953 
      7 S7         35.1536  -43.3193  -54.4262 S.3       11 UNK        -0.2369 
      8 C8         33.9927  -42.5950  -55.6344 C.3       11 UNK         0.0226 
      9 C9         32.9090  -43.5639  -56.1008 C.ar      11 UNK        -0.0699 
     10 C10        32.9313  -44.0806  -57.4028 C.ar      11 UNK        -0.0804 
     11 C11        31.8842  -44.8854  -57.8690 C.ar      11 UNK        -0.0871 
     12 C12        30.8260  -45.1940  -57.0124 C.ar      11 UNK        -0.1008 
     13 C13        30.8159  -44.7293  -55.6957 C.ar      11 UNK        -0.0735 
     14 C14        31.8449  -43.8947  -55.2565 C.ar      11 UNK        -0.0945 
     15 C15        29.6706  -45.0927  -54.7648 C.3       11 UNK         0.0169 
     16 S16        29.4008  -46.8918  -54.7014 S.3       11 UNK        -0.2669 
     17 C17        27.7759  -46.9709  -53.8750 C.3       11 UNK        -0.0850 
     18 CA         26.6268  -47.2491  -54.8869 C.3       10 UNK         0.0855 
     19 C          25.2924  -47.6882  -54.2092 C.2       10 UNK         0.5543 
     20 N          24.1295  -47.3859  -54.7762 N.am      10 UNK        -0.7343 
     21 O          25.3070  -48.3486  -53.1740 O.2       10 UNK        -0.5027 
     22 N          26.4769  -46.1916  -55.9011 N.am      10 UNK        -0.4495 
     23 C          26.0531  -44.9369  -55.6867 C.2       10 UNK         0.4903 
     24 O          25.8338  -44.4628  -54.5721 O.2       10 UNK        -0.4860 
     25 CA         25.8105  -44.0587  -56.9299 C.3       9 UNK         0.0227 
     26 CB         27.0400  -43.1783  -57.2070 C.3       9 UNK        -0.1964 
     27 N          25.4835  -44.8230  -58.1384 N.am      9 UNK        -0.4231 
     28 C          24.4387  -45.6513  -58.2806 C.2       9 UNK         0.5014 
     29 O          23.5649  -45.8099  -57.4262 O.2       9 UNK        -0.5270 
     30 CA         24.3995  -46.5128  -59.5566 C.3       8 UNK         0.0284 
     31 CB         25.1837  -45.9117  -60.7462 C.3       8 UNK        -0.1977 
     32 N          24.8454  -47.8848  -59.2774 N.am      8 UNK        -0.4342 
     33 C          26.0235  -48.2543  -58.7545 C.2       8 UNK         0.5039 
     34 O          26.9347  -47.4687  -58.4675 O.2       8 UNK        -0.5547 
     35 CA         26.2204  -49.7506  -58.4930 C.3       7 UNK         0.0281 
     36 CB         26.5206  -50.5122  -59.7964 C.3       7 UNK        -0.1963 
     37 N          27.3448  -49.8786  -57.5764 N.am      7 UNK        -0.4444 
     38 C          27.5874  -50.8821  -56.7300 C.2       7 UNK         0.5104 
     39 O          26.8719  -51.8802  -56.6315 O.2       7 UNK        -0.5100 
     40 CA         28.8329  -50.7245  -55.8309 C.3       6 UNK         0.0396 
     41 CB         29.3868  -52.0752  -55.3335 C.3       6 UNK        -0.1801 
     42 N          29.9054  -49.9181  -56.4327 N.am      6 UNK        -0.4747 
     43 C          30.5713  -50.1624  -57.5757 C.2       6 UNK         0.5012 
     44 O          30.3358  -51.1133  -58.3215 O.2       6 UNK        -0.5003 
     45 CA         31.7054  -49.1844  -57.9428 C.3       5 UNK         0.0782 
     46 C46        31.2350  -48.1385  -58.9820 C.3       11 UNK        -0.0868 
     47 S47        32.5934  -47.0311  -59.5044 S.3       11 UNK        -0.2515 
     48 C48        31.8631  -45.3735  -59.3116 C.3       11 UNK         0.0199 
     49 N          32.2878  -48.5713  -56.7443 N.am      5 UNK        -0.4607 
     50 C          33.1825  -49.1896  -55.9637 C.2       4 UNK         0.5031 
     51 O          33.6247  -50.3179  -56.1823 O.2       4 UNK        -0.5119 
     52 CA         33.6603  -48.4115  -54.7329 C.3       4 UNK         0.0263 
     53 CB         34.2613  -47.0519  -55.1311 C.3       4 UNK        -0.1967 
     54 N          32.5883  -48.2421  -53.7460 N.am      4 UNK        -0.4237 
     55 C          32.1076  -49.2345  -52.9801 C.2       3 UNK         0.4908 
     56 O          32.5076  -50.3982  -53.0427 O.2       3 UNK        -0.5102 
     57 CA         31.0348  -48.8555  -51.9447 C.3       3 UNK         0.0241 
     58 CB         30.6330  -50.0379  -51.0358 C.3       3 UNK        -0.1971 
     59 N          31.5004  -47.7252  -51.1401 N.am      3 UNK        -0.4139 
     60 C          30.7171  -46.9125  -50.4130 C.2       2 UNK         0.5016 
     61 O          29.4916  -47.0155  -50.3535 O.2       2 UNK        -0.5319 
     62 CA         31.4104  -45.7875  -49.6166 C.3       2 UNK         0.0286 
     63 CB         31.7592  -46.2667  -48.1986 C.3       2 UNK        -0.1963 
     64 N          32.6286  -45.3270  -50.2832 N.am      2 UNK        -0.4790 
     65 C          32.6313  -44.5614  -51.3805 C.2       1 UNK         0.5024 
     66 O          31.6413  -43.9268  -51.7444 O.2       1 UNK        -0.4888 
     67 H67        37.0537  -47.6769  -51.4951 H         1 UNK         0.0892 
     68 H68        37.3669  -46.0551  -50.8735 H         1 UNK         0.0892 
     69 H69        36.6009  -47.2642  -49.8392 H         1 UNK         0.0892 
     70 H70        35.8931  -44.5564  -51.5896 H         1 UNK         0.3107 
     71 H71        33.6052  -45.1946  -53.0988 H         1 UNK         0.0773 
     72 H72        34.8437  -42.5892  -52.1501 H         1 UNK         0.0680 
     73 H73        33.3511  -42.5522  -53.0206 H         1 UNK         0.0680 
     74 H74        33.5313  -41.7004  -55.2142 H         1 UNK         0.0650 
     75 H75        34.5744  -42.2511  -56.4909 H         1 UNK         0.0650 
     76 H76        33.7452  -43.8256  -58.0677 H         1 UNK         0.1397 
     77 H77        29.9973  -45.7912  -57.3649 H         1 UNK         0.1363 
     78 H78        31.8014  -43.4880  -54.2593 H         1 UNK         0.1355 
     79 H79        28.7725  -44.5891  -55.1147 H         1 UNK         0.0707 
     80 H80        29.8565  -44.7314  -53.7525 H         1 UNK         0.0707 
     81 H81        27.5903  -46.0573  -53.3085 H         1 UNK         0.1034 
     82 H82        27.8372  -47.7689  -53.1331 H         1 UNK         0.1034 
     83 H83        26.9206  -48.1311  -55.4532 H         1 UNK         0.0482 
     84 H84        23.2758  -47.6870  -54.3341 H         1 UNK         0.3460 
     85 H85        24.0890  -46.8416  -55.6291 H         1 UNK         0.3460 
     86 H86        26.6425  -46.4881  -56.8598 H         1 UNK         0.2989 
     87 H87        24.9616  -43.4082  -56.7116 H         1 UNK         0.0559 
     88 H88        27.2982  -42.5810  -56.3313 H         1 UNK         0.0848 
     89 H89        26.8560  -42.4839  -58.0265 H         1 UNK         0.0848 
     90 H90        27.9162  -43.7756  -57.4620 H         1 UNK         0.0848 
     91 H91        26.1719  -44.8166  -58.8771 H         1 UNK         0.3144 
     92 H92        23.3510  -46.5750  -59.8523 H         1 UNK         0.0727 
     93 H93        26.2603  -45.8930  -60.5748 H         1 UNK         0.0790 
     94 H94        24.8617  -44.8903  -60.9537 H         1 UNK         0.0790 
     95 H95        25.0110  -46.4897  -61.6542 H         1 UNK         0.0790 
     96 H96        24.1554  -48.6039  -59.4483 H         1 UNK         0.3215 
     97 H97        25.3191  -50.1486  -58.0217 H         1 UNK         0.0863 
     98 H98        26.6761  -51.5745  -59.6074 H         1 UNK         0.0808 
     99 H99        27.4152  -50.1276  -60.2881 H         1 UNK         0.0808 
    100 H100       25.6948  -50.4276  -60.5037 H         1 UNK         0.0808 
    101 H101       27.9481  -49.0646  -57.5694 H         1 UNK         0.3118 
    102 H102       28.4982  -50.1685  -54.9540 H         1 UNK         0.0546 
    103 H103       29.6925  -52.7156  -56.1613 H         1 UNK         0.0828 
    104 H104       28.6363  -52.6207  -54.7603 H         1 UNK         0.0828 
    105 H105       30.2497  -51.9336  -54.6821 H         1 UNK         0.0828 
    106 H106       30.1737  -49.0954  -55.9093 H         1 UNK         0.3005 
    107 H107       32.4801  -49.7860  -58.4249 H         1 UNK         0.1257 
    108 H108       30.8628  -48.6410  -59.8770 H         1 UNK         0.0775 
    109 H109       30.3943  -47.5614  -58.5997 H         1 UNK         0.0775 
    110 H110       32.4191  -44.6772  -59.9411 H         1 UNK         0.0840 
    111 H111       30.8429  -45.3729  -59.6988 H         1 UNK         0.0840 
    112 H112       32.0047  -47.6261  -56.5293 H         1 UNK         0.2987 
    113 H113       34.4582  -48.9966  -54.2698 H         1 UNK         0.0785 
    114 H114       34.8679  -46.6405  -54.3265 H         1 UNK         0.0798 
    115 H115       33.4950  -46.3220  -55.3893 H         1 UNK         0.0798 
    116 H116       34.9196  -47.1488  -55.9957 H         1 UNK         0.0798 
    117 H117       32.1900  -47.3202  -53.6498 H         1 UNK         0.3079 
    118 H118       30.1502  -48.5486  -52.5017 H         1 UNK         0.0794 
    119 H119       30.2858  -50.8862  -51.6271 H         1 UNK         0.0786 
    120 H120       29.8214  -49.7685  -50.3603 H         1 UNK         0.0786 
    121 H121       31.4730  -50.3802  -50.4304 H         1 UNK         0.0786 
    122 H122       32.5079  -47.5692  -51.1522 H         1 UNK         0.3032 
    123 H123       30.7087  -44.9537  -49.5364 H         1 UNK         0.1094 
    124 H124       32.2038  -45.4657  -47.6078 H         1 UNK         0.0794 
    125 H125       30.8651  -46.6005  -47.6701 H         1 UNK         0.0794 
    126 H126       32.4601  -47.1025  -48.2141 H         1 UNK         0.0794 
    127 H127       33.4732  -45.8499  -50.0918 H         1 UNK         0.3016 
@<TRIPOS>BOND
     1    1    2 1    
     2    1   67 1    
     3    1   68 1    
     4    1   69 1    
     5    2    3 2    
     6    2    4 am   BACKBONE|DICT|INTERRES
     7    4    5 1    
     8    4   70 1    
     9    5    6 1    
    10    5   65 1    
    11    5   71 1    
    12    6    7 1    
    13    6   72 1    
    14    6   73 1    
    15    7    8 1    
    16    8    9 1    
    17    8   74 1    
    18    8   75 1    
    19    9   10 ar   
    20    9   14 ar   
    21   10   11 ar   
    22   10   76 1    
    23   11   12 ar   
    24   11   48 1    
    25   12   13 ar   
    26   12   77 1    
    27   13   14 ar   
    28   13   15 1    
    29   14   78 1    
    30   15   16 1    
    31   15   79 1    
    32   15   80 1    
    33   16   17 1    
    34   17   18 1    
    35   17   81 1    
    36   17   82 1    
    37   18   19 1    
    38   18   22 1    
    39   18   83 1    
    40   19   20 am   BACKBONE|DICT|INTERRES
    41   19   21 2    
    42   20   84 1    
    43   20   85 1    
    44   22   23 am   BACKBONE|DICT|INTERRES
    45   22   86 1    
    46   23   24 2    
    47   23   25 1    
    48   25   26 1    
    49   25   27 1    
    50   25   87 1    
    51   26   88 1    
    52   26   89 1    
    53   26   90 1    
    54   27   28 am   BACKBONE|DICT|INTERRES
    55   27   91 1    
    56   28   29 2    
    57   28   30 1    
    58   30   31 1    
    59   30   32 1    
    60   30   92 1    
    61   31   93 1    
    62   31   94 1    
    63   31   95 1    
    64   32   33 am   BACKBONE|DICT|INTERRES
    65   32   96 1    
    66   33   34 2    
    67   33   35 1    
    68   35   36 1    
    69   35   37 1    
    70   35   97 1    
    71   36   98 1    
    72   36   99 1    
    73   36  100 1    
    74   37   38 am   BACKBONE|DICT|INTERRES
    75   37  101 1    
    76   38   39 2    
    77   38   40 1    
    78   40   41 1    
    79   40   42 1    
    80   40  102 1    
    81   41  103 1    
    82   41  104 1    
    83   41  105 1    
    84   42   43 am   BACKBONE|DICT|INTERRES
    85   42  106 1    
    86   43   44 2    
    87   43   45 1    
    88   45   46 1    
    89   45   49 1    
    90   45  107 1    
    91   46   47 1    
    92   46  108 1    
    93   46  109 1    
    94   47   48 1    
    95   48  110 1    
    96   48  111 1    
    97   49   50 am   BACKBONE|DICT|INTERRES
    98   49  112 1    
    99   50   51 2    
   100   50   52 1    
   101   52   53 1    
   102   52   54 1    
   103   52  113 1    
   104   53  114 1    
   105   53  115 1    
   106   53  116 1    
   107   54   55 am   BACKBONE|DICT|INTERRES
   108   54  117 1    
   109   55   56 2    
   110   55   57 1    
   111   57   58 1    
   112   57   59 1    
   113   57  118 1    
   114   58  119 1    
   115   58  120 1    
   116   58  121 1    
   117   59   60 am   BACKBONE|DICT|INTERRES
   118   59  122 1    
   119   60   61 2    
   120   60   62 1    
   121   62   63 1    
   122   62   64 1    
   123   62  123 1    
   124   63  124 1    
   125   63  125 1    
   126   63  126 1    
   127   64   65 am   BACKBONE|DICT|INTERRES
   128   64  127 1    
   129   65   66 2    
@<TRIPOS>SUBSTRUCTURE
     1 UNK         1 GROUP             0       ****    0 ROOT    
