@<TRIPOS>MOLECULE
3R134
127   129    1
SMALL
USER_CHARGES


@<TRIPOS>ATOM
      1 CA         36.6925  -44.9386  -52.7507 C.3       0 UNK        -0.1968 
      2 C          35.4161  -45.7506  -52.5978 C.2       0 UNK         0.4852 
      3 O          35.1951  -46.6931  -53.3560 O.2       0 UNK        -0.5359 
      4 N          34.5803  -45.4136  -51.6068 N.am      1 UNK        -0.4300 
      5 CA         33.2560  -46.0083  -51.3623 C.3       1 UNK         0.0863 
      6 C6         32.3706  -45.1050  -50.4666 C.3       11 UNK        -0.0953 
      7 S7         32.2236  -43.3915  -51.0928 S.3       11 UNK        -0.2369 
      8 C8         30.6317  -43.4208  -51.9900 C.3       11 UNK         0.0226 
      9 C9         30.7603  -43.2854  -53.5081 C.ar      11 UNK        -0.0699 
     10 C10        31.7804  -43.9206  -54.2262 C.ar      11 UNK        -0.0804 
     11 C11        31.8585  -43.8096  -55.6165 C.ar      11 UNK        -0.0871 
     12 C12        30.9016  -43.0542  -56.2994 C.ar      11 UNK        -0.1008 
     13 C13        29.8840  -42.3979  -55.6000 C.ar      11 UNK        -0.0735 
     14 C14        29.8212  -42.5197  -54.2069 C.ar      11 UNK        -0.0945 
     15 C15        28.8897  -41.5218  -56.3563 C.3       11 UNK         0.0169 
     16 S16        27.1504  -41.7912  -55.8776 S.3       11 UNK        -0.2669 
     17 C17        26.8871  -43.5273  -56.3667 C.3       11 UNK        -0.0850 
     18 CA         26.2572  -43.6602  -57.7803 C.3       10 UNK         0.0855 
     19 C          27.3310  -43.7231  -58.8994 C.2       10 UNK         0.5543 
     20 N          28.0832  -44.8118  -58.9952 N.am      10 UNK        -0.7343 
     21 O          27.4752  -42.7897  -59.6848 O.2       10 UNK        -0.5027 
     22 N          25.3114  -44.7817  -57.8395 N.am      10 UNK        -0.4495 
     23 C          24.4123  -44.9932  -58.8071 C.2       10 UNK         0.4903 
     24 O          24.2614  -44.2479  -59.7767 O.2       10 UNK        -0.4860 
     25 CA         23.5244  -46.2471  -58.6512 C.3       9 UNK         0.0227 
     26 CB         22.4182  -46.3252  -59.7209 C.3       9 UNK        -0.1964 
     27 N          24.2958  -47.4938  -58.6766 N.am      9 UNK        -0.4231 
     28 C          25.0917  -47.9371  -57.6953 C.2       9 UNK         0.5014 
     29 O          25.2594  -47.3282  -56.6348 O.2       9 UNK        -0.5270 
     30 CA         25.8368  -49.2570  -57.9746 C.3       8 UNK         0.0284 
     31 CB         26.8668  -49.0714  -59.1037 C.3       8 UNK        -0.1977 
     32 N          26.5389  -49.7528  -56.7921 N.am      8 UNK        -0.4342 
     33 C          25.9683  -50.2378  -55.6818 C.2       8 UNK         0.5039 
     34 O          24.7659  -50.4857  -55.5743 O.2       8 UNK        -0.5547 
     35 CA         26.9018  -50.4668  -54.4817 C.3       7 UNK         0.0281 
     36 CB         27.5650  -51.8524  -54.5560 C.3       7 UNK        -0.1963 
     37 N          27.9318  -49.4263  -54.4024 N.am      7 UNK        -0.4444 
     38 C          27.7382  -48.2077  -53.8764 C.2       7 UNK         0.5104 
     39 O          26.7025  -47.8671  -53.3039 O.2       7 UNK        -0.5100 
     40 CA         28.8978  -47.2003  -53.9804 C.3       6 UNK         0.0396 
     41 CB         29.7100  -47.1918  -52.6796 C.3       6 UNK        -0.1801 
     42 N          29.8018  -47.4772  -55.0970 N.am      6 UNK        -0.4747 
     43 C          29.5479  -47.1577  -56.3749 C.2       6 UNK         0.5012 
     44 O          28.5337  -46.5696  -56.7495 O.2       6 UNK        -0.5003 
     45 CA         30.5759  -47.6192  -57.4309 C.3       5 UNK         0.0782 
     46 C46        31.6132  -46.5123  -57.7462 C.3       11 UNK        -0.0868 
     47 S47        32.8623  -46.2759  -56.4329 S.3       11 UNK        -0.2515 
     48 C48        33.0117  -44.4636  -56.3655 C.3       11 UNK         0.0199 
     49 N          31.2131  -48.9001  -57.0986 N.am      5 UNK        -0.4607 
     50 C          30.5621  -50.0514  -56.8885 C.2       4 UNK         0.5031 
     51 O          29.3454  -50.1676  -57.0238 O.2       4 UNK        -0.5119 
     52 CA         31.3694  -51.2711  -56.4087 C.3       4 UNK         0.0263 
     53 CB         31.5117  -52.2931  -57.5478 C.3       4 UNK        -0.1967 
     54 N          32.6974  -50.9766  -55.8577 N.am      4 UNK        -0.4237 
     55 C          32.9583  -50.2151  -54.7855 C.2       3 UNK         0.4908 
     56 O          32.0996  -49.5805  -54.1662 O.2       3 UNK        -0.5102 
     57 CA         34.4414  -50.1360  -54.3844 C.3       3 UNK         0.0241 
     58 CB         35.2345  -49.2847  -55.3908 C.3       3 UNK        -0.1971 
     59 N          34.6195  -49.5766  -53.0441 N.am      3 UNK        -0.4139 
     60 C          34.4766  -50.2688  -51.9026 C.2       2 UNK         0.5016 
     61 O          34.2245  -51.4744  -51.8648 O.2       2 UNK        -0.5319 
     62 CA         34.6652  -49.5079  -50.5732 C.3       2 UNK         0.0286 
     63 CB         36.0654  -49.7716  -49.9955 C.3       2 UNK        -0.1963 
     64 N          34.4754  -48.0641  -50.7203 N.am      2 UNK        -0.4790 
     65 C          33.2821  -47.4723  -50.8636 C.2       1 UNK         0.5024 
     66 O          32.2185  -48.0545  -50.6511 O.2       1 UNK        -0.4888 
     67 H67        36.7641  -44.1463  -52.0057 H         1 UNK         0.0892 
     68 H68        37.5634  -45.5850  -52.6457 H         1 UNK         0.0892 
     69 H69        36.7256  -44.4798  -53.7384 H         1 UNK         0.0892 
     70 H70        34.8178  -44.6385  -51.0036 H         1 UNK         0.3107 
     71 H71        32.7656  -46.0865  -52.3312 H         1 UNK         0.0773 
     72 H72        31.3729  -45.5303  -50.3464 H         1 UNK         0.0680 
     73 H73        32.7917  -45.0534  -49.4610 H         1 UNK         0.0680 
     74 H74        30.0302  -42.5990  -51.5984 H         1 UNK         0.0650 
     75 H75        30.0747  -44.3288  -51.7627 H         1 UNK         0.0650 
     76 H76        32.5338  -44.4937  -53.7123 H         1 UNK         0.1397 
     77 H77        30.9643  -42.9558  -57.3747 H         1 UNK         0.1363 
     78 H78        29.0348  -42.0124  -53.6650 H         1 UNK         0.1355 
     79 H79        28.9832  -41.6697  -57.4331 H         1 UNK         0.0707 
     80 H80        29.1414  -40.4771  -56.1699 H         1 UNK         0.0707 
     81 H81        27.8124  -44.0976  -56.2705 H         1 UNK         0.1034 
     82 H82        26.2177  -43.9515  -55.6166 H         1 UNK         0.1034 
     83 H83        25.6578  -42.7662  -57.9656 H         1 UNK         0.0482 
     84 H84        28.7711  -44.8705  -59.7278 H         1 UNK         0.3460 
     85 H85        28.0240  -45.5370  -58.2871 H         1 UNK         0.3460 
     86 H86        25.4114  -45.5087  -57.1350 H         1 UNK         0.2989 
     87 H87        23.0328  -46.1701  -57.6790 H         1 UNK         0.0559 
     88 H88        22.8316  -46.4181  -60.7261 H         1 UNK         0.0848 
     89 H89        21.7967  -45.4287  -59.7063 H         1 UNK         0.0848 
     90 H90        21.7575  -47.1751  -59.5490 H         1 UNK         0.0848 
     91 H91        24.2383  -48.0347  -59.5277 H         1 UNK         0.3144 
     92 H92        25.1046  -50.0082  -58.2771 H         1 UNK         0.0727 
     93 H93        27.4266  -49.9894  -59.2853 H         1 UNK         0.0790 
     94 H94        27.5846  -48.2861  -58.8644 H         1 UNK         0.0790 
     95 H95        26.3867  -48.7981  -60.0438 H         1 UNK         0.0790 
     96 H96        27.5507  -49.6565  -56.8006 H         1 UNK         0.3215 
     97 H97        26.2950  -50.4320  -53.5741 H         1 UNK         0.0863 
     98 H98        28.2198  -52.0260  -53.7020 H         1 UNK         0.0808 
     99 H99        28.1557  -51.9762  -55.4638 H         1 UNK         0.0808 
    100 H100       26.8114  -52.6411  -54.5518 H         1 UNK         0.0808 
    101 H101       28.8010  -49.6039  -54.8860 H         1 UNK         0.3118 
    102 H102       28.4674  -46.2058  -54.1190 H         1 UNK         0.0546 
    103 H103       29.0833  -46.9364  -51.8243 H         1 UNK         0.0828 
    104 H104       30.5117  -46.4580  -52.7275 H         1 UNK         0.0828 
    105 H105       30.1595  -48.1654  -52.4789 H         1 UNK         0.0828 
    106 H106       30.6598  -47.9735  -54.8821 H         1 UNK         0.3005 
    107 H107       30.0026  -47.7922  -58.3443 H         1 UNK         0.1257 
    108 H108       31.1090  -45.5670  -57.9564 H         1 UNK         0.0775 
    109 H109       32.1469  -46.7671  -58.6629 H         1 UNK         0.0775 
    110 H110       33.9466  -44.2138  -55.8614 H         1 UNK         0.0840 
    111 H111       33.1002  -44.0664  -57.3780 H         1 UNK         0.0840 
    112 H112       32.2093  -48.8693  -56.9386 H         1 UNK         0.2987 
    113 H113       30.7877  -51.7342  -55.6090 H         1 UNK         0.0785 
    114 H114       30.5365  -52.5610  -57.9577 H         1 UNK         0.0798 
    115 H115       31.9764  -53.2158  -57.1996 H         1 UNK         0.0798 
    116 H116       32.1130  -51.9009  -58.3690 H         1 UNK         0.0798 
    117 H117       33.4730  -51.4373  -56.3122 H         1 UNK         0.3079 
    118 H118       34.8506  -51.1486  -54.3943 H         1 UNK         0.0794 
    119 H119       34.8406  -48.2707  -55.4581 H         1 UNK         0.0786 
    120 H120       35.2007  -49.7137  -56.3927 H         1 UNK         0.0786 
    121 H121       36.2847  -49.2129  -55.1073 H         1 UNK         0.0786 
    122 H122       34.7877  -48.5750  -53.0019 H         1 UNK         0.3032 
    123 H123       33.9239  -49.8920  -49.8683 H         1 UNK         0.1094 
    124 H124       36.8518  -49.4100  -50.6593 H         1 UNK         0.0794 
    125 H125       36.1929  -49.2877  -49.0269 H         1 UNK         0.0794 
    126 H126       36.2305  -50.8397  -49.8465 H         1 UNK         0.0794 
    127 H127       35.2990  -47.5124  -50.9129 H         1 UNK         0.3016 
@<TRIPOS>BOND
     1    1    2 1    
     2    1   67 1    
     3    1   68 1    
     4    1   69 1    
     5    2    3 2    
     6    2    4 am   BACKBONE|DICT|INTERRES
     7    4    5 1    
     8    4   70 1    
     9    5    6 1    
    10    5   65 1    
    11    5   71 1    
    12    6    7 1    
    13    6   72 1    
    14    6   73 1    
    15    7    8 1    
    16    8    9 1    
    17    8   74 1    
    18    8   75 1    
    19    9   10 ar   
    20    9   14 ar   
    21   10   11 ar   
    22   10   76 1    
    23   11   12 ar   
    24   11   48 1    
    25   12   13 ar   
    26   12   77 1    
    27   13   14 ar   
    28   13   15 1    
    29   14   78 1    
    30   15   16 1    
    31   15   79 1    
    32   15   80 1    
    33   16   17 1    
    34   17   18 1    
    35   17   81 1    
    36   17   82 1    
    37   18   19 1    
    38   18   22 1    
    39   18   83 1    
    40   19   20 am   BACKBONE|DICT|INTERRES
    41   19   21 2    
    42   20   84 1    
    43   20   85 1    
    44   22   23 am   BACKBONE|DICT|INTERRES
    45   22   86 1    
    46   23   24 2    
    47   23   25 1    
    48   25   26 1    
    49   25   27 1    
    50   25   87 1    
    51   26   88 1    
    52   26   89 1    
    53   26   90 1    
    54   27   28 am   BACKBONE|DICT|INTERRES
    55   27   91 1    
    56   28   29 2    
    57   28   30 1    
    58   30   31 1    
    59   30   32 1    
    60   30   92 1    
    61   31   93 1    
    62   31   94 1    
    63   31   95 1    
    64   32   33 am   BACKBONE|DICT|INTERRES
    65   32   96 1    
    66   33   34 2    
    67   33   35 1    
    68   35   36 1    
    69   35   37 1    
    70   35   97 1    
    71   36   98 1    
    72   36   99 1    
    73   36  100 1    
    74   37   38 am   BACKBONE|DICT|INTERRES
    75   37  101 1    
    76   38   39 2    
    77   38   40 1    
    78   40   41 1    
    79   40   42 1    
    80   40  102 1    
    81   41  103 1    
    82   41  104 1    
    83   41  105 1    
    84   42   43 am   BACKBONE|DICT|INTERRES
    85   42  106 1    
    86   43   44 2    
    87   43   45 1    
    88   45   46 1    
    89   45   49 1    
    90   45  107 1    
    91   46   47 1    
    92   46  108 1    
    93   46  109 1    
    94   47   48 1    
    95   48  110 1    
    96   48  111 1    
    97   49   50 am   BACKBONE|DICT|INTERRES
    98   49  112 1    
    99   50   51 2    
   100   50   52 1    
   101   52   53 1    
   102   52   54 1    
   103   52  113 1    
   104   53  114 1    
   105   53  115 1    
   106   53  116 1    
   107   54   55 am   BACKBONE|DICT|INTERRES
   108   54  117 1    
   109   55   56 2    
   110   55   57 1    
   111   57   58 1    
   112   57   59 1    
   113   57  118 1    
   114   58  119 1    
   115   58  120 1    
   116   58  121 1    
   117   59   60 am   BACKBONE|DICT|INTERRES
   118   59  122 1    
   119   60   61 2    
   120   60   62 1    
   121   62   63 1    
   122   62   64 1    
   123   62  123 1    
   124   63  124 1    
   125   63  125 1    
   126   63  126 1    
   127   64   65 am   BACKBONE|DICT|INTERRES
   128   64  127 1    
   129   65   66 2    
@<TRIPOS>SUBSTRUCTURE
     1 UNK         1 GROUP             0       ****    0 ROOT    
