@<TRIPOS>MOLECULE
3R134
127   129    1
SMALL
USER_CHARGES


@<TRIPOS>ATOM
      1 CA         38.3606  -46.7734  -53.1775 C.3       0 UNK        -0.1968 
      2 C          36.9377  -46.7149  -53.7114 C.2       0 UNK         0.4852 
      3 O          36.3794  -47.7494  -54.0824 O.2       0 UNK        -0.5359 
      4 N          36.3330  -45.5171  -53.7341 N.am      1 UNK        -0.4300 
      5 CA         34.9784  -45.2642  -54.2473 C.3       1 UNK         0.0863 
      6 C6         34.6874  -43.7526  -54.4094 C.3       11 UNK        -0.0953 
      7 S7         34.5789  -42.8358  -52.8318 S.3       11 UNK        -0.2369 
      8 C8         33.2538  -41.6352  -53.1857 C.3       11 UNK         0.0226 
      9 C9         31.8978  -42.2942  -53.4098 C.ar      11 UNK        -0.0699 
     10 C10        31.1925  -42.8432  -52.3350 C.ar      11 UNK        -0.0804 
     11 C11        29.9343  -43.4253  -52.5265 C.ar      11 UNK        -0.0871 
     12 C12        29.3821  -43.4479  -53.8136 C.ar      11 UNK        -0.1008 
     13 C13        30.0831  -42.9151  -54.8991 C.ar      11 UNK        -0.0735 
     14 C14        31.3356  -42.3319  -54.6892 C.ar      11 UNK        -0.0945 
     15 C15        29.4850  -42.9547  -56.2969 C.3       11 UNK         0.0169 
     16 S16        30.3293  -44.1793  -57.3446 S.3       11 UNK        -0.2669 
     17 C17        29.3598  -44.0465  -58.8882 C.3       11 UNK        -0.0850 
     18 CA         28.5769  -45.3385  -59.2728 C.3       10 UNK         0.0855 
     19 C          29.4364  -46.4195  -59.9895 C.2       10 UNK         0.5543 
     20 N          29.2289  -47.7125  -59.7645 N.am      10 UNK        -0.7343 
     21 O          30.2975  -46.0838  -60.7990 O.2       10 UNK        -0.5027 
     22 N          27.7518  -45.8658  -58.1789 N.am      10 UNK        -0.4495 
     23 C          26.6417  -45.2875  -57.7129 C.2       10 UNK         0.4903 
     24 O          26.1984  -44.2120  -58.1203 O.2       10 UNK        -0.4860 
     25 CA         25.8887  -46.0792  -56.6307 C.3       9 UNK         0.0227 
     26 CB         24.7299  -45.2886  -55.9889 C.3       9 UNK        -0.1964 
     27 N          25.4217  -47.3685  -57.1506 N.am      9 UNK        -0.4231 
     28 C          24.6199  -47.5984  -58.2050 C.2       9 UNK         0.5014 
     29 O          24.0600  -46.7114  -58.8508 O.2       9 UNK        -0.5270 
     30 CA         24.3743  -49.0706  -58.6033 C.3       8 UNK         0.0284 
     31 CB         24.5560  -49.2962  -60.1196 C.3       8 UNK        -0.1977 
     32 N          25.1509  -50.0442  -57.8215 N.am      8 UNK        -0.4342 
     33 C          26.4789  -50.2248  -57.8064 C.2       8 UNK         0.5039 
     34 O          27.2658  -49.6088  -58.5267 O.2       8 UNK        -0.5547 
     35 CA         27.0033  -51.1766  -56.7158 C.3       7 UNK         0.0281 
     36 CB         28.4681  -51.5870  -56.9529 C.3       7 UNK        -0.1963 
     37 N          26.9000  -50.5416  -55.3998 N.am      7 UNK        -0.4444 
     38 C          25.7794  -50.3156  -54.7021 C.2       7 UNK         0.5104 
     39 O          24.6747  -50.7307  -55.0546 O.2       7 UNK        -0.5100 
     40 CA         25.8771  -49.4321  -53.4396 C.3       6 UNK         0.0396 
     41 CB         26.0290  -50.2935  -52.1712 C.3       6 UNK        -0.1801 
     42 N          26.8943  -48.3657  -53.5012 N.am      6 UNK        -0.4747 
     43 C          28.2280  -48.4972  -53.5518 C.2       6 UNK         0.5012 
     44 O          28.8023  -49.5875  -53.5095 O.2       6 UNK        -0.5003 
     45 CA         29.0579  -47.2056  -53.7151 C.3       5 UNK         0.0782 
     46 C46        29.4848  -46.6346  -52.3402 C.3       11 UNK        -0.0868 
     47 S47        28.2174  -45.5105  -51.6663 S.3       11 UNK        -0.2515 
     48 C48        29.1877  -43.9999  -51.3222 C.3       11 UNK         0.0199 
     49 N          30.2168  -47.4509  -54.5721 N.am      5 UNK        -0.4607 
     50 C          30.1724  -47.8366  -55.8540 C.2       4 UNK         0.5031 
     51 O          29.1363  -47.8517  -56.5210 O.2       4 UNK        -0.5119 
     52 CA         31.4943  -48.3212  -56.4791 C.3       4 UNK         0.0263 
     53 CB         32.1702  -47.2085  -57.2927 C.3       4 UNK        -0.1967 
     54 N          32.4369  -48.7907  -55.4596 N.am      4 UNK        -0.4237 
     55 C          32.5107  -50.0467  -54.9973 C.2       3 UNK         0.4908 
     56 O          31.8384  -50.9788  -55.4389 O.2       3 UNK        -0.5102 
     57 CA         33.5140  -50.3223  -53.8601 C.3       3 UNK         0.0241 
     58 CB         34.8375  -50.8563  -54.4314 C.3       3 UNK        -0.1971 
     59 N          33.7860  -49.1415  -53.0344 N.am      3 UNK        -0.4139 
     60 C          32.9474  -48.6689  -52.0979 C.2       2 UNK         0.5016 
     61 O          31.9074  -49.2358  -51.7670 O.2       2 UNK        -0.5319 
     62 CA         33.3027  -47.3250  -51.4285 C.3       2 UNK         0.0286 
     63 CB         33.9820  -47.5643  -50.0710 C.3       2 UNK        -0.1963 
     64 N          34.1557  -46.4548  -52.2428 N.am      2 UNK        -0.4790 
     65 C          33.8640  -46.0039  -53.4725 C.2       1 UNK         0.5024 
     66 O          32.7886  -46.2201  -54.0265 O.2       1 UNK        -0.4888 
     67 H67        39.0315  -47.1610  -53.9437 H         1 UNK         0.0892 
     68 H68        38.7235  -45.7917  -52.8736 H         1 UNK         0.0892 
     69 H69        38.4101  -47.4364  -52.3142 H         1 UNK         0.0892 
     70 H70        36.8265  -44.7025  -53.3958 H         1 UNK         0.3107 
     71 H71        34.9584  -45.6911  -55.2527 H         1 UNK         0.0773 
     72 H72        33.7648  -43.6252  -54.9761 H         1 UNK         0.0680 
     73 H73        35.4647  -43.2880  -55.0178 H         1 UNK         0.0680 
     74 H74        33.5408  -41.0352  -54.0508 H         1 UNK         0.0650 
     75 H75        33.1784  -40.9416  -52.3471 H         1 UNK         0.0650 
     76 H76        31.6282  -42.8111  -51.3455 H         1 UNK         0.1397 
     77 H77        28.4061  -43.8834  -53.9741 H         1 UNK         0.1363 
     78 H78        31.8738  -41.9125  -55.5283 H         1 UNK         0.1355 
     79 H79        29.5656  -41.9680  -56.7553 H         1 UNK         0.0707 
     80 H80        28.4208  -43.1915  -56.2521 H         1 UNK         0.0707 
     81 H81        28.6543  -43.2202  -58.7931 H         1 UNK         0.1034 
     82 H82        30.0316  -43.7421  -59.6924 H         1 UNK         0.1034 
     83 H83        27.8753  -45.0438  -60.0556 H         1 UNK         0.0482 
     84 H84        28.5048  -48.0601  -59.1457 H         1 UNK         0.3460 
     85 H85        29.7979  -48.3786  -60.2601 H         1 UNK         0.3460 
     86 H86        28.0998  -46.7163  -57.7431 H         1 UNK         0.2989 
     87 H87        26.6114  -46.3020  -55.8454 H         1 UNK         0.0559 
     88 H88        25.0928  -44.3620  -55.5424 H         1 UNK         0.0848 
     89 H89        24.2470  -45.8629  -55.1985 H         1 UNK         0.0848 
     90 H90        23.9671  -45.0184  -56.7198 H         1 UNK         0.0848 
     91 H91        25.8579  -48.1821  -56.7430 H         1 UNK         0.3144 
     92 H92        23.3283  -49.2705  -58.3659 H         1 UNK         0.0727 
     93 H93        24.3733  -50.3357  -60.3918 H         1 UNK         0.0790 
     94 H94        25.5602  -49.0324  -60.4529 H         1 UNK         0.0790 
     95 H95        23.8569  -48.6853  -60.6920 H         1 UNK         0.0790 
     96 H96        24.6248  -50.5373  -57.1052 H         1 UNK         0.3215 
     97 H97        26.3893  -52.0798  -56.7259 H         1 UNK         0.0863 
     98 H98        28.8083  -52.3000  -56.2018 H         1 UNK         0.0808 
     99 H99        29.1392  -50.7274  -56.9217 H         1 UNK         0.0808 
    100 H100       28.5884  -52.0589  -57.9288 H         1 UNK         0.0808 
    101 H101       27.7640  -50.1891  -54.9973 H         1 UNK         0.3118 
    102 H102       24.9219  -48.9104  -53.3609 H         1 UNK         0.0546 
    103 H103       26.9436  -50.8869  -52.1834 H         1 UNK         0.0828 
    104 H104       25.1959  -50.9909  -52.0750 H         1 UNK         0.0828 
    105 H105       26.0406  -49.6775  -51.2722 H         1 UNK         0.0828 
    106 H106       26.5163  -47.4283  -53.5216 H         1 UNK         0.3005 
    107 H107       28.4543  -46.4657  -54.2438 H         1 UNK         0.1257 
    108 H108       29.6970  -47.4225  -51.6143 H         1 UNK         0.0775 
    109 H109       30.4173  -46.0786  -52.4422 H         1 UNK         0.0775 
    110 H110       28.5139  -43.2346  -50.9353 H         1 UNK         0.0840 
    111 H111       29.8886  -44.2271  -50.5172 H         1 UNK         0.0840 
    112 H112       31.1241  -47.3798  -54.1303 H         1 UNK         0.2987 
    113 H113       31.2544  -49.1406  -57.1600 H         1 UNK         0.0785 
    114 H114       33.0968  -47.5561  -57.7494 H         1 UNK         0.0798 
    115 H115       32.4033  -46.3388  -56.6778 H         1 UNK         0.0798 
    116 H116       31.5224  -46.8706  -58.0993 H         1 UNK         0.0798 
    117 H117       32.9906  -48.0741  -55.0082 H         1 UNK         0.3079 
    118 H118       33.0829  -51.0983  -53.2236 H         1 UNK         0.0794 
    119 H119       34.6727  -51.7614  -55.0176 H         1 UNK         0.0786 
    120 H120       35.5400  -51.1082  -53.6367 H         1 UNK         0.0786 
    121 H121       35.3185  -50.1273  -55.0849 H         1 UNK         0.0786 
    122 H122       34.6338  -48.6235  -53.2442 H         1 UNK         0.3032 
    123 H123       32.3659  -46.7934  -51.2521 H         1 UNK         0.1094 
    124 H124       34.9422  -48.0694  -50.1834 H         1 UNK         0.0794 
    125 H125       34.1536  -46.6269  -49.5415 H         1 UNK         0.0794 
    126 H126       33.3591  -48.1876  -49.4276 H         1 UNK         0.0794 
    127 H127       35.0654  -46.2301  -51.8669 H         1 UNK         0.3016 
@<TRIPOS>BOND
     1    1    2 1    
     2    1   67 1    
     3    1   68 1    
     4    1   69 1    
     5    2    3 2    
     6    2    4 am   BACKBONE|DICT|INTERRES
     7    4    5 1    
     8    4   70 1    
     9    5    6 1    
    10    5   65 1    
    11    5   71 1    
    12    6    7 1    
    13    6   72 1    
    14    6   73 1    
    15    7    8 1    
    16    8    9 1    
    17    8   74 1    
    18    8   75 1    
    19    9   10 ar   
    20    9   14 ar   
    21   10   11 ar   
    22   10   76 1    
    23   11   12 ar   
    24   11   48 1    
    25   12   13 ar   
    26   12   77 1    
    27   13   14 ar   
    28   13   15 1    
    29   14   78 1    
    30   15   16 1    
    31   15   79 1    
    32   15   80 1    
    33   16   17 1    
    34   17   18 1    
    35   17   81 1    
    36   17   82 1    
    37   18   19 1    
    38   18   22 1    
    39   18   83 1    
    40   19   20 am   BACKBONE|DICT|INTERRES
    41   19   21 2    
    42   20   84 1    
    43   20   85 1    
    44   22   23 am   BACKBONE|DICT|INTERRES
    45   22   86 1    
    46   23   24 2    
    47   23   25 1    
    48   25   26 1    
    49   25   27 1    
    50   25   87 1    
    51   26   88 1    
    52   26   89 1    
    53   26   90 1    
    54   27   28 am   BACKBONE|DICT|INTERRES
    55   27   91 1    
    56   28   29 2    
    57   28   30 1    
    58   30   31 1    
    59   30   32 1    
    60   30   92 1    
    61   31   93 1    
    62   31   94 1    
    63   31   95 1    
    64   32   33 am   BACKBONE|DICT|INTERRES
    65   32   96 1    
    66   33   34 2    
    67   33   35 1    
    68   35   36 1    
    69   35   37 1    
    70   35   97 1    
    71   36   98 1    
    72   36   99 1    
    73   36  100 1    
    74   37   38 am   BACKBONE|DICT|INTERRES
    75   37  101 1    
    76   38   39 2    
    77   38   40 1    
    78   40   41 1    
    79   40   42 1    
    80   40  102 1    
    81   41  103 1    
    82   41  104 1    
    83   41  105 1    
    84   42   43 am   BACKBONE|DICT|INTERRES
    85   42  106 1    
    86   43   44 2    
    87   43   45 1    
    88   45   46 1    
    89   45   49 1    
    90   45  107 1    
    91   46   47 1    
    92   46  108 1    
    93   46  109 1    
    94   47   48 1    
    95   48  110 1    
    96   48  111 1    
    97   49   50 am   BACKBONE|DICT|INTERRES
    98   49  112 1    
    99   50   51 2    
   100   50   52 1    
   101   52   53 1    
   102   52   54 1    
   103   52  113 1    
   104   53  114 1    
   105   53  115 1    
   106   53  116 1    
   107   54   55 am   BACKBONE|DICT|INTERRES
   108   54  117 1    
   109   55   56 2    
   110   55   57 1    
   111   57   58 1    
   112   57   59 1    
   113   57  118 1    
   114   58  119 1    
   115   58  120 1    
   116   58  121 1    
   117   59   60 am   BACKBONE|DICT|INTERRES
   118   59  122 1    
   119   60   61 2    
   120   60   62 1    
   121   62   63 1    
   122   62   64 1    
   123   62  123 1    
   124   63  124 1    
   125   63  125 1    
   126   63  126 1    
   127   64   65 am   BACKBONE|DICT|INTERRES
   128   64  127 1    
   129   65   66 2    
@<TRIPOS>SUBSTRUCTURE
     1 UNK         1 GROUP             0       ****    0 ROOT    
