@<TRIPOS>MOLECULE
3R134
127   129    1
SMALL
USER_CHARGES


@<TRIPOS>ATOM
      1 CA         37.1681  -46.5374  -55.9828 C.3       0 UNK        -0.1968 
      2 C          35.8434  -46.5941  -55.2387 C.2       0 UNK         0.4852 
      3 O          35.1668  -47.6224  -55.2807 O.2       0 UNK        -0.5359 
      4 N          35.4772  -45.5053  -54.5463 N.am      1 UNK        -0.4300 
      5 CA         34.2215  -45.3153  -53.8019 C.3       1 UNK         0.0863 
      6 C6         34.1843  -43.9384  -53.0997 C.3       11 UNK        -0.0953 
      7 S7         34.0996  -42.5801  -54.3132 S.3       11 UNK        -0.2369 
      8 C8         32.6635  -41.6279  -53.7228 C.3       11 UNK         0.0226 
      9 C9         31.3517  -42.3949  -53.8382 C.ar      11 UNK        -0.0699 
     10 C10        30.7338  -42.9113  -52.6959 C.ar      11 UNK        -0.0804 
     11 C11        29.5029  -43.5697  -52.7812 C.ar      11 UNK        -0.0871 
     12 C12        28.8838  -43.7027  -54.0309 C.ar      11 UNK        -0.1008 
     13 C13        29.4956  -43.1957  -55.1826 C.ar      11 UNK        -0.0735 
     14 C14        30.7302  -42.5468  -55.0799 C.ar      11 UNK        -0.0945 
     15 C15        28.8187  -43.3159  -56.5387 C.3       11 UNK         0.0169 
     16 S16        29.3360  -44.8307  -57.3985 S.3       11 UNK        -0.2669 
     17 C17        28.9952  -44.3933  -59.1430 C.3       11 UNK        -0.0850 
     18 CA         28.2041  -45.4741  -59.9284 C.3       10 UNK         0.0855 
     19 C          29.0329  -46.7674  -60.1713 C.2       10 UNK         0.5543 
     20 N          28.6215  -47.9368  -59.6989 N.am      10 UNK        -0.7343 
     21 O          30.0637  -46.7113  -60.8378 O.2       10 UNK        -0.5027 
     22 N          26.8587  -45.6949  -59.3790 N.am      10 UNK        -0.4495 
     23 C          25.7872  -44.9303  -59.6343 C.2       10 UNK         0.4903 
     24 O          25.8049  -43.9591  -60.3915 O.2       10 UNK        -0.4860 
     25 CA         24.4651  -45.2937  -58.9262 C.3       9 UNK         0.0227 
     26 CB         23.5722  -46.1332  -59.8538 C.3       9 UNK        -0.1964 
     27 N          24.6900  -46.0287  -57.6820 N.am      9 UNK        -0.4231 
     28 C          25.2032  -45.4941  -56.5688 C.2       9 UNK         0.5014 
     29 O          25.2730  -44.2788  -56.3806 O.2       9 UNK        -0.5270 
     30 CA         25.7664  -46.4483  -55.4914 C.3       8 UNK         0.0284 
     31 CB         25.1373  -46.1431  -54.1203 C.3       8 UNK        -0.1977 
     32 N          25.6886  -47.9013  -55.7308 N.am      8 UNK        -0.4342 
     33 C          26.1421  -48.5966  -56.7851 C.2       8 UNK         0.5039 
     34 O          26.5643  -48.0806  -57.8206 O.2       8 UNK        -0.5547 
     35 CA         26.1571  -50.1224  -56.6311 C.3       7 UNK         0.0281 
     36 CB         26.5243  -50.8564  -57.9344 C.3       7 UNK        -0.1963 
     37 N          27.1435  -50.4347  -55.6045 N.am      7 UNK        -0.4444 
     38 C          26.9710  -51.2814  -54.5813 C.2       7 UNK         0.5104 
     39 O          25.9839  -52.0063  -54.4525 O.2       7 UNK        -0.5100 
     40 CA         28.0689  -51.3063  -53.4956 C.3       6 UNK         0.0396 
     41 CB         29.0071  -52.5028  -53.7126 C.3       6 UNK        -0.1801 
     42 N          28.8539  -50.0660  -53.4412 N.am      6 UNK        -0.4747 
     43 C          28.3403  -48.8668  -53.1150 C.2       6 UNK         0.5012 
     44 O          27.2010  -48.7406  -52.6660 O.2       6 UNK        -0.5003 
     45 CA         29.1875  -47.5980  -53.3927 C.3       5 UNK         0.0782 
     46 C46        29.4891  -46.7933  -52.1021 C.3       11 UNK        -0.0868 
     47 S47        28.0820  -45.7270  -51.6309 S.3       11 UNK        -0.2515 
     48 C48        28.8433  -44.0750  -51.4995 C.3       11 UNK         0.0199 
     49 N          30.3923  -47.8462  -54.1981 N.am      5 UNK        -0.4607 
     50 C          30.3633  -48.2433  -55.4802 C.2       4 UNK         0.5031 
     51 O          29.3197  -48.4690  -56.0901 O.2       4 UNK        -0.5119 
     52 CA         31.7008  -48.5035  -56.1900 C.3       4 UNK         0.0263 
     53 CB         32.1950  -47.2358  -56.9021 C.3       4 UNK        -0.1967 
     54 N          32.7560  -49.0345  -55.3223 N.am      4 UNK        -0.4237 
     55 C          32.6983  -50.2100  -54.6772 C.2       3 UNK         0.4908 
     56 O          31.6977  -50.9256  -54.6497 O.2       3 UNK        -0.5102 
     57 CA         33.9653  -50.6680  -53.9420 C.3       3 UNK         0.0241 
     58 CB         35.0188  -51.1781  -54.9397 C.3       3 UNK        -0.1971 
     59 N          34.5280  -49.5750  -53.1527 N.am      3 UNK        -0.4139 
     60 C          34.3335  -49.4085  -51.8375 C.2       2 UNK         0.5016 
     61 O          33.7507  -50.2221  -51.1193 O.2       2 UNK        -0.5319 
     62 CA         34.8653  -48.1062  -51.2073 C.3       2 UNK         0.0286 
     63 CB         36.2437  -48.3417  -50.5691 C.3       2 UNK        -0.1963 
     64 N          34.9551  -46.9798  -52.1429 N.am      2 UNK        -0.4790 
     65 C          33.9138  -46.4399  -52.7940 C.2       1 UNK         0.5024 
     66 O          32.7537  -46.8287  -52.6639 O.2       1 UNK        -0.4888 
     67 H67        37.0040  -46.6960  -57.0481 H         1 UNK         0.0892 
     68 H68        37.6684  -45.5777  -55.8550 H         1 UNK         0.0892 
     69 H69        37.8343  -47.3197  -55.6204 H         1 UNK         0.0892 
     70 H70        36.0810  -44.6956  -54.5639 H         1 UNK         0.3107 
     71 H71        33.4137  -45.3381  -54.5344 H         1 UNK         0.0773 
     72 H72        35.0688  -43.7964  -52.4761 H         1 UNK         0.0680 
     73 H73        33.3307  -43.8695  -52.4246 H         1 UNK         0.0680 
     74 H74        32.5922  -40.7089  -54.3063 H         1 UNK         0.0650 
     75 H75        32.8415  -41.3174  -52.6920 H         1 UNK         0.0650 
     76 H76        31.2066  -42.7830  -51.7317 H         1 UNK         0.1397 
     77 H77        27.9228  -44.1925  -54.1083 H         1 UNK         0.1363 
     78 H78        31.2032  -42.1467  -55.9665 H         1 UNK         0.1355 
     79 H79        27.7343  -43.3122  -56.4283 H         1 UNK         0.0707 
     80 H80        29.0691  -42.4435  -57.1442 H         1 UNK         0.0707 
     81 H81        28.4436  -43.4532  -59.1832 H         1 UNK         0.1034 
     82 H82        29.9475  -44.1884  -59.6355 H         1 UNK         0.1034 
     83 H83        28.0622  -45.0806  -60.9369 H         1 UNK         0.0482 
     84 H84        29.1759  -48.7554  -59.8854 H         1 UNK         0.3460 
     85 H85        27.8244  -48.0067  -59.0696 H         1 UNK         0.3460 
     86 H86        26.7643  -46.4933  -58.7557 H         1 UNK         0.2989 
     87 H87        23.9416  -44.3642  -58.6926 H         1 UNK         0.0559 
     88 H88        24.0435  -47.0804  -60.1203 H         1 UNK         0.0848 
     89 H89        23.3652  -45.5998  -60.7826 H         1 UNK         0.0848 
     90 H90        22.6119  -46.3544  -59.3878 H         1 UNK         0.0848 
     91 H91        24.7556  -47.0350  -57.7634 H         1 UNK         0.3144 
     92 H92        26.8298  -46.2107  -55.4318 H         1 UNK         0.0727 
     93 H93        25.6096  -46.7176  -53.3243 H         1 UNK         0.0790 
     94 H94        24.0705  -46.3690  -54.1100 H         1 UNK         0.0790 
     95 H95        25.2510  -45.0907  -53.8560 H         1 UNK         0.0790 
     96 H96        25.3660  -48.4417  -54.9401 H         1 UNK         0.3215 
     97 H97        25.1577  -50.4348  -56.3203 H         1 UNK         0.0863 
     98 H98        27.5227  -50.5860  -58.2811 H         1 UNK         0.0808 
     99 H99        25.8222  -50.6110  -58.7322 H         1 UNK         0.0808 
    100 H100       26.4993  -51.9376  -57.7989 H         1 UNK         0.0808 
    101 H101       27.9785  -49.8526  -55.6272 H         1 UNK         0.3118 
    102 H102       27.5760  -51.4320  -52.5294 H         1 UNK         0.0546 
    103 H103       29.7844  -52.5450  -52.9495 H         1 UNK         0.0828 
    104 H104       29.4948  -52.4603  -54.6872 H         1 UNK         0.0828 
    105 H105       28.4557  -53.4428  -53.6671 H         1 UNK         0.0828 
    106 H106       29.7968  -50.1110  -53.8117 H         1 UNK         0.3005 
    107 H107       28.5580  -46.9681  -54.0244 H         1 UNK         0.1257 
    108 H108       30.3521  -46.1470  -52.2563 H         1 UNK         0.0775 
    109 H109       29.7532  -47.4479  -51.2695 H         1 UNK         0.0775 
    110 H110       28.0728  -43.3617  -51.2044 H         1 UNK         0.0840 
    111 H111       29.5645  -44.1012  -50.6809 H         1 UNK         0.0840 
    112 H112       31.2851  -47.6749  -53.7456 H         1 UNK         0.2987 
    113 H113       31.5143  -49.2603  -56.9549 H         1 UNK         0.0785 
    114 H114       33.1522  -47.3996  -57.3972 H         1 UNK         0.0798 
    115 H115       31.4843  -46.9262  -57.6694 H         1 UNK         0.0798 
    116 H116       32.3086  -46.4016  -56.2114 H         1 UNK         0.0798 
    117 H117       33.6301  -48.5098  -55.3025 H         1 UNK         0.3079 
    118 H118       33.6909  -51.5014  -53.2916 H         1 UNK         0.0794 
    119 H119       35.8988  -51.5599  -54.4220 H         1 UNK         0.0786 
    120 H120       35.3481  -50.3944  -55.6232 H         1 UNK         0.0786 
    121 H121       34.6197  -51.9933  -55.5449 H         1 UNK         0.0786 
    122 H122       34.9802  -48.8310  -53.6741 H         1 UNK         0.3032 
    123 H123       34.1637  -47.8244  -50.4187 H         1 UNK         0.1094 
    124 H124       36.9951  -48.6027  -51.3155 H         1 UNK         0.0794 
    125 H125       36.5914  -47.4571  -50.0351 H         1 UNK         0.0794 
    126 H126       36.2048  -49.1585  -49.8467 H         1 UNK         0.0794 
    127 H127       35.8766  -46.6081  -52.3242 H         1 UNK         0.3016 
@<TRIPOS>BOND
     1    1    2 1    
     2    1   67 1    
     3    1   68 1    
     4    1   69 1    
     5    2    3 2    
     6    2    4 am   BACKBONE|DICT|INTERRES
     7    4    5 1    
     8    4   70 1    
     9    5    6 1    
    10    5   65 1    
    11    5   71 1    
    12    6    7 1    
    13    6   72 1    
    14    6   73 1    
    15    7    8 1    
    16    8    9 1    
    17    8   74 1    
    18    8   75 1    
    19    9   10 ar   
    20    9   14 ar   
    21   10   11 ar   
    22   10   76 1    
    23   11   12 ar   
    24   11   48 1    
    25   12   13 ar   
    26   12   77 1    
    27   13   14 ar   
    28   13   15 1    
    29   14   78 1    
    30   15   16 1    
    31   15   79 1    
    32   15   80 1    
    33   16   17 1    
    34   17   18 1    
    35   17   81 1    
    36   17   82 1    
    37   18   19 1    
    38   18   22 1    
    39   18   83 1    
    40   19   20 am   BACKBONE|DICT|INTERRES
    41   19   21 2    
    42   20   84 1    
    43   20   85 1    
    44   22   23 am   BACKBONE|DICT|INTERRES
    45   22   86 1    
    46   23   24 2    
    47   23   25 1    
    48   25   26 1    
    49   25   27 1    
    50   25   87 1    
    51   26   88 1    
    52   26   89 1    
    53   26   90 1    
    54   27   28 am   BACKBONE|DICT|INTERRES
    55   27   91 1    
    56   28   29 2    
    57   28   30 1    
    58   30   31 1    
    59   30   32 1    
    60   30   92 1    
    61   31   93 1    
    62   31   94 1    
    63   31   95 1    
    64   32   33 am   BACKBONE|DICT|INTERRES
    65   32   96 1    
    66   33   34 2    
    67   33   35 1    
    68   35   36 1    
    69   35   37 1    
    70   35   97 1    
    71   36   98 1    
    72   36   99 1    
    73   36  100 1    
    74   37   38 am   BACKBONE|DICT|INTERRES
    75   37  101 1    
    76   38   39 2    
    77   38   40 1    
    78   40   41 1    
    79   40   42 1    
    80   40  102 1    
    81   41  103 1    
    82   41  104 1    
    83   41  105 1    
    84   42   43 am   BACKBONE|DICT|INTERRES
    85   42  106 1    
    86   43   44 2    
    87   43   45 1    
    88   45   46 1    
    89   45   49 1    
    90   45  107 1    
    91   46   47 1    
    92   46  108 1    
    93   46  109 1    
    94   47   48 1    
    95   48  110 1    
    96   48  111 1    
    97   49   50 am   BACKBONE|DICT|INTERRES
    98   49  112 1    
    99   50   51 2    
   100   50   52 1    
   101   52   53 1    
   102   52   54 1    
   103   52  113 1    
   104   53  114 1    
   105   53  115 1    
   106   53  116 1    
   107   54   55 am   BACKBONE|DICT|INTERRES
   108   54  117 1    
   109   55   56 2    
   110   55   57 1    
   111   57   58 1    
   112   57   59 1    
   113   57  118 1    
   114   58  119 1    
   115   58  120 1    
   116   58  121 1    
   117   59   60 am   BACKBONE|DICT|INTERRES
   118   59  122 1    
   119   60   61 2    
   120   60   62 1    
   121   62   63 1    
   122   62   64 1    
   123   62  123 1    
   124   63  124 1    
   125   63  125 1    
   126   63  126 1    
   127   64   65 am   BACKBONE|DICT|INTERRES
   128   64  127 1    
   129   65   66 2    
@<TRIPOS>SUBSTRUCTURE
     1 UNK         1 GROUP             0       ****    0 ROOT    
