@<TRIPOS>MOLECULE
3R134
127   129    1
SMALL
USER_CHARGES


@<TRIPOS>ATOM
      1 CA         32.4260  -51.2905  -57.0008 C.3       0 UNK        -0.1968 
      2 C          32.7465  -50.2338  -55.9554 C.2       0 UNK         0.4852 
      3 O          32.7881  -50.5496  -54.7665 O.2       0 UNK        -0.5359 
      4 N          32.9940  -48.9903  -56.3928 N.am      1 UNK        -0.4300 
      5 CA         33.2444  -47.8020  -55.5600 C.3       1 UNK         0.0863 
      6 C6         33.4840  -46.5417  -56.4235 C.3       11 UNK        -0.0953 
      7 S7         32.0793  -46.1728  -57.5259 S.3       11 UNK        -0.2369 
      8 C8         32.0035  -44.3577  -57.4279 C.3       11 UNK         0.0226 
      9 C9         31.1779  -43.8784  -56.2426 C.ar      11 UNK        -0.0699 
     10 C10        31.7877  -43.5551  -55.0253 C.ar      11 UNK        -0.0804 
     11 C11        31.0239  -43.0805  -53.9536 C.ar      11 UNK        -0.0871 
     12 C12        29.6450  -42.9104  -54.1142 C.ar      11 UNK        -0.1008 
     13 C13        29.0244  -43.2420  -55.3202 C.ar      11 UNK        -0.0735 
     14 C14        29.7948  -43.7294  -56.3787 C.ar      11 UNK        -0.0945 
     15 C15        27.5215  -43.0847  -55.4765 C.3       11 UNK         0.0169 
     16 S16        26.6669  -44.5539  -54.8432 S.3       11 UNK        -0.2669 
     17 C17        24.9897  -44.3457  -55.5266 C.3       11 UNK        -0.0850 
     18 CA         24.7752  -45.2541  -56.7723 C.3       10 UNK         0.0855 
     19 C          23.2863  -45.4918  -57.1799 C.2       10 UNK         0.5543 
     20 N          22.3162  -45.2266  -56.3139 N.am      10 UNK        -0.7343 
     21 O          23.0019  -45.9846  -58.2699 O.2       10 UNK        -0.5027 
     22 N          25.6380  -44.8514  -57.8960 N.am      10 UNK        -0.4495 
     23 C          25.4408  -43.8234  -58.7358 C.2       10 UNK         0.4903 
     24 O          24.5021  -43.0315  -58.6416 O.2       10 UNK        -0.4860 
     25 CA         26.4662  -43.6137  -59.8700 C.3       9 UNK         0.0227 
     26 CB         27.2612  -42.3136  -59.6578 C.3       9 UNK        -0.1964 
     27 N          27.4093  -44.7225  -60.0269 N.am      9 UNK        -0.4231 
     28 C          27.1304  -45.9154  -60.5678 C.2       9 UNK         0.5014 
     29 O          26.0496  -46.2047  -61.0824 O.2       9 UNK        -0.5270 
     30 CA         28.2424  -46.9794  -60.5013 C.3       8 UNK         0.0284 
     31 CB         29.6675  -46.3817  -60.5469 C.3       8 UNK        -0.1977 
     32 N          28.0919  -47.8689  -59.3416 N.am      8 UNK        -0.4342 
     33 C          28.0475  -47.5158  -58.0488 C.2       8 UNK         0.5039 
     34 O          28.0967  -46.3512  -57.6469 O.2       8 UNK        -0.5547 
     35 CA         27.9431  -48.6575  -57.0329 C.3       7 UNK         0.0281 
     36 CB         29.2724  -49.4301  -56.9412 C.3       7 UNK        -0.1963 
     37 N          27.6213  -48.0988  -55.7227 N.am      7 UNK        -0.4444 
     38 C          27.0193  -48.7535  -54.7241 C.2       7 UNK         0.5104 
     39 O          26.6041  -49.9098  -54.8205 O.2       7 UNK        -0.5100 
     40 CA         26.9217  -48.0067  -53.3843 C.3       6 UNK         0.0396 
     41 CB         26.3852  -48.8866  -52.2365 C.3       6 UNK        -0.1801 
     42 N          28.2467  -47.4913  -53.0508 N.am      6 UNK        -0.4747 
     43 C          28.5346  -46.4888  -52.2148 C.2       6 UNK         0.5012 
     44 O          27.6886  -45.8793  -51.5579 O.2       6 UNK        -0.5003 
     45 CA         30.0355  -46.1537  -52.0646 C.3       5 UNK         0.0782 
     46 C46        30.2843  -44.8239  -51.3072 C.3       11 UNK        -0.0868 
     47 S47        31.9802  -44.2129  -51.5933 S.3       11 UNK        -0.2515 
     48 C48        31.6868  -42.7376  -52.6256 C.3       11 UNK         0.0199 
     49 N          30.7348  -47.2674  -51.4129 N.am      5 UNK        -0.4607 
     50 C          31.0727  -48.4232  -51.9937 C.2       4 UNK         0.5031 
     51 O          30.8756  -48.6752  -53.1830 O.2       4 UNK        -0.5119 
     52 CA         31.6400  -49.5027  -51.0701 C.3       4 UNK         0.0263 
     53 CB         30.5036  -50.4068  -50.5531 C.3       4 UNK        -0.1967 
     54 N          32.6391  -50.2974  -51.7812 N.am      4 UNK        -0.4237 
     55 C          33.5714  -51.0495  -51.1795 C.2       3 UNK         0.4908 
     56 O          33.6708  -51.1696  -49.9574 O.2       3 UNK        -0.5102 
     57 CA         34.5793  -51.7763  -52.0794 C.3       3 UNK         0.0241 
     58 CB         33.9439  -53.0115  -52.7404 C.3       3 UNK        -0.1971 
     59 N          35.1068  -50.8729  -53.1006 N.am      3 UNK        -0.4139 
     60 C          36.1850  -50.0929  -52.9349 C.2       2 UNK         0.5016 
     61 O          36.8939  -50.1111  -51.9276 O.2       2 UNK        -0.5319 
     62 CA         36.5522  -49.1307  -54.0803 C.3       2 UNK         0.0286 
     63 CB         37.6603  -49.7372  -54.9565 C.3       2 UNK        -0.1963 
     64 N          35.4147  -48.7720  -54.9296 N.am      2 UNK        -0.4790 
     65 C          34.4039  -47.9738  -54.5552 C.2       1 UNK         0.5024 
     66 O          34.3582  -47.3977  -53.4682 O.2       1 UNK        -0.4888 
     67 H67        31.4667  -51.7563  -56.7773 H         1 UNK         0.0892 
     68 H68        32.3727  -50.8698  -58.0047 H         1 UNK         0.0892 
     69 H69        33.1906  -52.0666  -56.9954 H         1 UNK         0.0892 
     70 H70        32.9440  -48.8022  -57.3839 H         1 UNK         0.3107 
     71 H71        32.3413  -47.6321  -54.9732 H         1 UNK         0.0773 
     72 H72        34.3777  -46.6586  -57.0395 H         1 UNK         0.0680 
     73 H73        33.6681  -45.6789  -55.7823 H         1 UNK         0.0680 
     74 H74        31.5618  -43.9825  -58.3522 H         1 UNK         0.0650 
     75 H75        33.0122  -43.9436  -57.3890 H         1 UNK         0.0650 
     76 H76        32.8565  -43.6685  -54.9089 H         1 UNK         0.1397 
     77 H77        29.0461  -42.5334  -53.2966 H         1 UNK         0.1363 
     78 H78        29.3165  -43.9964  -57.3105 H         1 UNK         0.1355 
     79 H79        27.1729  -42.2004  -54.9411 H         1 UNK         0.0707 
     80 H80        27.2677  -42.9337  -56.5250 H         1 UNK         0.0707 
     81 H81        24.3057  -44.6106  -54.7200 H         1 UNK         0.1034 
     82 H82        24.7952  -43.2984  -55.7637 H         1 UNK         0.1034 
     83 H83        25.1226  -46.2521  -56.5018 H         1 UNK         0.0482 
     84 H84        22.5107  -44.8409  -55.4043 H         1 UNK         0.3460 
     85 H85        21.3620  -45.4084  -56.5839 H         1 UNK         0.3460 
     86 H86        26.4816  -45.4077  -58.0063 H         1 UNK         0.2989 
     87 H87        25.8993  -43.5149  -60.7980 H         1 UNK         0.0559 
     88 H88        27.8855  -42.3581  -58.7654 H         1 UNK         0.0848 
     89 H89        26.5932  -41.4584  -59.5455 H         1 UNK         0.0848 
     90 H90        27.9095  -42.1033  -60.5086 H         1 UNK         0.0848 
     91 H91        28.3068  -44.6227  -59.5750 H         1 UNK         0.3144 
     92 H92        28.1234  -47.6029  -61.3889 H         1 UNK         0.0727 
     93 H93        30.4165  -47.1682  -60.6403 H         1 UNK         0.0790 
     94 H94        29.9103  -45.8100  -59.6511 H         1 UNK         0.0790 
     95 H95        29.7895  -45.7198  -61.4053 H         1 UNK         0.0790 
     96 H96        28.0055  -48.8508  -59.5656 H         1 UNK         0.3215 
     97 H97        27.1415  -49.3277  -57.3508 H         1 UNK         0.0863 
     98 H98        29.2122  -50.2453  -56.2199 H         1 UNK         0.0808 
     99 H99        30.0875  -48.7740  -56.6328 H         1 UNK         0.0808 
    100 H100       29.5485  -49.8682  -57.9008 H         1 UNK         0.0808 
    101 H101       27.8700  -47.1207  -55.6170 H         1 UNK         0.3118 
    102 H102       26.2367  -47.1699  -53.5289 H         1 UNK         0.0546 
    103 H103       27.0432  -49.7341  -52.0406 H         1 UNK         0.0828 
    104 H104       25.3988  -49.2848  -52.4770 H         1 UNK         0.0828 
    105 H105       26.2849  -48.3199  -51.3110 H         1 UNK         0.0828 
    106 H106       29.0283  -47.9736  -53.4890 H         1 UNK         0.3005 
    107 H107       30.4243  -46.0378  -53.0802 H         1 UNK         0.1257 
    108 H108       30.1322  -44.9545  -50.2345 H         1 UNK         0.0775 
    109 H109       29.5741  -44.0537  -51.6076 H         1 UNK         0.0775 
    110 H110       31.0813  -42.0218  -52.0671 H         1 UNK         0.0840 
    111 H111       32.6414  -42.2430  -52.8116 H         1 UNK         0.0840 
    112 H112       30.9039  -47.1544  -50.4242 H         1 UNK         0.2987 
    113 H113       32.1243  -49.0107  -50.2235 H         1 UNK         0.0785 
    114 H114       30.8692  -51.1426  -49.8370 H         1 UNK         0.0798 
    115 H115       30.0199  -50.9454  -51.3692 H         1 UNK         0.0798 
    116 H116       29.7343  -49.8213  -50.0478 H         1 UNK         0.0798 
    117 H117       32.6028  -50.2410  -52.7983 H         1 UNK         0.3079 
    118 H118       35.3995  -52.1278  -51.4494 H         1 UNK         0.0794 
    119 H119       33.5895  -53.7146  -51.9856 H         1 UNK         0.0786 
    120 H120       34.6647  -53.5410  -53.3635 H         1 UNK         0.0786 
    121 H121       33.0896  -52.7509  -53.3655 H         1 UNK         0.0786 
    122 H122       34.5253  -50.7433  -53.9234 H         1 UNK         0.3032 
    123 H123       36.9381  -48.2166  -53.6228 H         1 UNK         0.1094 
    124 H124       37.9871  -49.0369  -55.7255 H         1 UNK         0.0794 
    125 H125       38.5368  -49.9893  -54.3576 H         1 UNK         0.0794 
    126 H126       37.3302  -50.6516  -55.4511 H         1 UNK         0.0794 
    127 H127       35.3702  -49.2017  -55.8426 H         1 UNK         0.3016 
@<TRIPOS>BOND
     1    1    2 1    
     2    1   67 1    
     3    1   68 1    
     4    1   69 1    
     5    2    3 2    
     6    2    4 am   BACKBONE|DICT|INTERRES
     7    4    5 1    
     8    4   70 1    
     9    5    6 1    
    10    5   65 1    
    11    5   71 1    
    12    6    7 1    
    13    6   72 1    
    14    6   73 1    
    15    7    8 1    
    16    8    9 1    
    17    8   74 1    
    18    8   75 1    
    19    9   10 ar   
    20    9   14 ar   
    21   10   11 ar   
    22   10   76 1    
    23   11   12 ar   
    24   11   48 1    
    25   12   13 ar   
    26   12   77 1    
    27   13   14 ar   
    28   13   15 1    
    29   14   78 1    
    30   15   16 1    
    31   15   79 1    
    32   15   80 1    
    33   16   17 1    
    34   17   18 1    
    35   17   81 1    
    36   17   82 1    
    37   18   19 1    
    38   18   22 1    
    39   18   83 1    
    40   19   20 am   BACKBONE|DICT|INTERRES
    41   19   21 2    
    42   20   84 1    
    43   20   85 1    
    44   22   23 am   BACKBONE|DICT|INTERRES
    45   22   86 1    
    46   23   24 2    
    47   23   25 1    
    48   25   26 1    
    49   25   27 1    
    50   25   87 1    
    51   26   88 1    
    52   26   89 1    
    53   26   90 1    
    54   27   28 am   BACKBONE|DICT|INTERRES
    55   27   91 1    
    56   28   29 2    
    57   28   30 1    
    58   30   31 1    
    59   30   32 1    
    60   30   92 1    
    61   31   93 1    
    62   31   94 1    
    63   31   95 1    
    64   32   33 am   BACKBONE|DICT|INTERRES
    65   32   96 1    
    66   33   34 2    
    67   33   35 1    
    68   35   36 1    
    69   35   37 1    
    70   35   97 1    
    71   36   98 1    
    72   36   99 1    
    73   36  100 1    
    74   37   38 am   BACKBONE|DICT|INTERRES
    75   37  101 1    
    76   38   39 2    
    77   38   40 1    
    78   40   41 1    
    79   40   42 1    
    80   40  102 1    
    81   41  103 1    
    82   41  104 1    
    83   41  105 1    
    84   42   43 am   BACKBONE|DICT|INTERRES
    85   42  106 1    
    86   43   44 2    
    87   43   45 1    
    88   45   46 1    
    89   45   49 1    
    90   45  107 1    
    91   46   47 1    
    92   46  108 1    
    93   46  109 1    
    94   47   48 1    
    95   48  110 1    
    96   48  111 1    
    97   49   50 am   BACKBONE|DICT|INTERRES
    98   49  112 1    
    99   50   51 2    
   100   50   52 1    
   101   52   53 1    
   102   52   54 1    
   103   52  113 1    
   104   53  114 1    
   105   53  115 1    
   106   53  116 1    
   107   54   55 am   BACKBONE|DICT|INTERRES
   108   54  117 1    
   109   55   56 2    
   110   55   57 1    
   111   57   58 1    
   112   57   59 1    
   113   57  118 1    
   114   58  119 1    
   115   58  120 1    
   116   58  121 1    
   117   59   60 am   BACKBONE|DICT|INTERRES
   118   59  122 1    
   119   60   61 2    
   120   60   62 1    
   121   62   63 1    
   122   62   64 1    
   123   62  123 1    
   124   63  124 1    
   125   63  125 1    
   126   63  126 1    
   127   64   65 am   BACKBONE|DICT|INTERRES
   128   64  127 1    
   129   65   66 2    
@<TRIPOS>SUBSTRUCTURE
     1 UNK         1 GROUP             0       ****    0 ROOT    
