@<TRIPOS>MOLECULE
3R134
127   129    1
SMALL
USER_CHARGES


@<TRIPOS>ATOM
      1 CA         29.0582  -44.5784  -49.3167 C.3       0 UNK        -0.1968 
      2 C          30.5577  -44.6935  -49.5469 C.2       0 UNK         0.4852 
      3 O          31.2160  -45.4890  -48.8753 O.2       0 UNK        -0.5359 
      4 N          31.1027  -43.9050  -50.4828 N.am      1 UNK        -0.4300 
      5 CA         32.5280  -43.9091  -50.8401 C.3       1 UNK         0.0863 
      6 C6         33.0125  -42.5146  -51.3134 C.3       11 UNK        -0.0953 
      7 S7         32.1798  -41.8928  -52.8170 S.3       11 UNK        -0.2369 
      8 C8         33.4381  -42.1770  -54.1136 C.3       11 UNK         0.0226 
      9 C9         32.8923  -42.9623  -55.3024 C.ar      11 UNK        -0.0699 
     10 C10        33.5996  -44.0567  -55.8139 C.ar      11 UNK        -0.0804 
     11 C11        33.1167  -44.7618  -56.9219 C.ar      11 UNK        -0.0871 
     12 C12        31.9064  -44.3703  -57.5028 C.ar      11 UNK        -0.1008 
     13 C13        31.1698  -43.2991  -56.9905 C.ar      11 UNK        -0.0735 
     14 C14        31.6935  -42.5776  -55.9111 C.ar      11 UNK        -0.0945 
     15 C15        29.8186  -42.9824  -57.6378 C.3       11 UNK         0.0169 
     16 S16        28.8025  -41.6715  -56.8586 S.3       11 UNK        -0.2669 
     17 C17        28.3329  -42.2249  -55.1697 C.3       11 UNK        -0.0850 
     18 CA         28.5404  -43.7168  -54.7686 C.3       10 UNK         0.0855 
     19 C          28.3219  -43.9441  -53.2420 C.2       10 UNK         0.5543 
     20 N          27.5656  -44.9446  -52.8056 N.am      10 UNK        -0.7343 
     21 O          28.9014  -43.2304  -52.4278 O.2       10 UNK        -0.5027 
     22 N          27.8510  -44.6917  -55.6323 N.am      10 UNK        -0.4495 
     23 C          26.5427  -44.7490  -55.9124 C.2       10 UNK         0.4903 
     24 O          25.7121  -43.9113  -55.5619 O.2       10 UNK        -0.4860 
     25 CA         26.0779  -45.9977  -56.6829 C.3       9 UNK         0.0227 
     26 CB         26.2779  -45.8072  -58.1945 C.3       9 UNK        -0.1964 
     27 N          26.7523  -47.2285  -56.2517 N.am      9 UNK        -0.4231 
     28 C          26.6847  -47.7544  -55.0202 C.2       9 UNK         0.5014 
     29 O          26.0487  -47.2431  -54.0964 O.2       9 UNK        -0.5270 
     30 CA         27.4900  -49.0461  -54.7805 C.3       8 UNK         0.0284 
     31 CB         27.2515  -49.6566  -53.3828 C.3       8 UNK        -0.1977 
     32 N          27.2948  -50.0489  -55.8337 N.am      8 UNK        -0.4342 
     33 C          26.1626  -50.6738  -56.1872 C.2       8 UNK         0.5039 
     34 O          25.0697  -50.4957  -55.6467 O.2       8 UNK        -0.5547 
     35 CA         26.3050  -51.6846  -57.3431 C.3       7 UNK         0.0281 
     36 CB         24.9522  -52.2036  -57.8780 C.3       7 UNK        -0.1963 
     37 N          27.1591  -51.1723  -58.4240 N.am      7 UNK        -0.4444 
     38 C          26.9045  -50.1347  -59.2367 C.2       7 UNK         0.5104 
     39 O          25.8470  -49.5032  -59.2426 O.2       7 UNK        -0.5100 
     40 CA         28.0579  -49.7195  -60.1770 C.3       6 UNK         0.0396 
     41 CB         27.7841  -48.3900  -60.9114 C.3       6 UNK        -0.1801 
     42 N          29.3649  -49.6687  -59.5036 N.am      6 UNK        -0.4747 
     43 C          29.6658  -48.9599  -58.4044 C.2       6 UNK         0.5012 
     44 O          28.8581  -48.2510  -57.8003 O.2       6 UNK        -0.5003 
     45 CA         31.1012  -49.0795  -57.8523 C.3       5 UNK         0.0782 
     46 C46        31.7105  -47.6560  -57.7527 C.3       11 UNK        -0.0868 
     47 S47        33.3471  -47.5581  -56.9550 S.3       11 UNK        -0.2515 
     48 C48        33.9172  -45.9172  -57.5193 C.3       11 UNK         0.0199 
     49 N          31.1459  -49.7954  -56.5683 N.am      5 UNK        -0.4607 
     50 C          30.5708  -50.9675  -56.2543 C.2       4 UNK         0.5031 
     51 O          29.8384  -51.5951  -57.0205 O.2       4 UNK        -0.5119 
     52 CA         30.7947  -51.5176  -54.8286 C.3       4 UNK         0.0263 
     53 CB         30.9980  -53.0471  -54.8211 C.3       4 UNK        -0.1967 
     54 N          31.8484  -50.8331  -54.0655 N.am      4 UNK        -0.4237 
     55 C          33.1672  -50.8129  -54.3108 C.2       3 UNK         0.4908 
     56 O          33.7098  -51.4357  -55.2243 O.2       3 UNK        -0.5102 
     57 CA         33.9941  -49.8648  -53.4213 C.3       3 UNK         0.0241 
     58 CB         35.5048  -49.9407  -53.7111 C.3       3 UNK        -0.1971 
     59 N          33.5417  -48.4861  -53.6193 N.am      3 UNK        -0.4139 
     60 C          32.4773  -47.9332  -53.0256 C.2       2 UNK         0.5016 
     61 O          31.8077  -48.4953  -52.1563 O.2       2 UNK        -0.5319 
     62 CA         32.0159  -46.5797  -53.5793 C.3       2 UNK         0.0286 
     63 CB         30.6861  -46.7380  -54.3328 C.3       2 UNK        -0.1963 
     64 N          31.8655  -45.5677  -52.5389 N.am      2 UNK        -0.4790 
     65 C          32.8795  -45.0133  -51.8605 C.2       1 UNK         0.5024 
     66 O          34.0604  -45.3199  -52.0329 O.2       1 UNK        -0.4888 
     67 H67        28.8468  -44.5001  -48.2506 H         1 UNK         0.0892 
     68 H68        28.6380  -43.6996  -49.8049 H         1 UNK         0.0892 
     69 H69        28.5512  -45.4630  -49.7005 H         1 UNK         0.0892 
     70 H70        30.5054  -43.3064  -51.0458 H         1 UNK         0.3107 
     71 H71        33.1008  -44.1439  -49.9401 H         1 UNK         0.0773 
     72 H72        34.0944  -42.5130  -51.4549 H         1 UNK         0.0680 
     73 H73        32.8320  -41.7878  -50.5200 H         1 UNK         0.0680 
     74 H74        33.7997  -41.2106  -54.4666 H         1 UNK         0.0650 
     75 H75        34.3023  -42.6917  -53.6925 H         1 UNK         0.0650 
     76 H76        34.5349  -44.3519  -55.3579 H         1 UNK         0.1397 
     77 H77        31.5278  -44.9058  -58.3619 H         1 UNK         0.1363 
     78 H78        31.1627  -41.7247  -55.5155 H         1 UNK         0.1355 
     79 H79        29.2283  -43.8941  -57.7209 H         1 UNK         0.0707 
     80 H80        30.0127  -42.6673  -58.6638 H         1 UNK         0.0707 
     81 H81        27.2928  -41.9390  -55.0087 H         1 UNK         0.1034 
     82 H82        28.9010  -41.5895  -54.4875 H         1 UNK         0.1034 
     83 H83        29.5972  -43.9278  -54.8938 H         1 UNK         0.0482 
     84 H84        27.0671  -45.5512  -53.4450 H         1 UNK         0.3460 
     85 H85        27.4422  -45.0667  -51.8148 H         1 UNK         0.3460 
     86 H86        28.4242  -45.4518  -55.9656 H         1 UNK         0.2989 
     87 H87        25.0101  -46.1254  -56.4939 H         1 UNK         0.0559 
     88 H88        25.7837  -44.8997  -58.5440 H         1 UNK         0.0848 
     89 H89        25.8561  -46.6417  -58.7553 H         1 UNK         0.0848 
     90 H90        27.3337  -45.7268  -58.4562 H         1 UNK         0.0848 
     91 H91        27.3552  -47.6860  -56.9346 H         1 UNK         0.3144 
     92 H92        28.5399  -48.7591  -54.8336 H         1 UNK         0.0727 
     93 H93        27.8408  -50.5601  -53.2319 H         1 UNK         0.0790 
     94 H94        26.2029  -49.9129  -53.2279 H         1 UNK         0.0790 
     95 H95        27.5321  -48.9527  -52.5980 H         1 UNK         0.0790 
     96 H96        28.1095  -50.2529  -56.3983 H         1 UNK         0.3215 
     97 H97        26.8354  -52.5414  -56.9239 H         1 UNK         0.0863 
     98 H98        25.0928  -52.9149  -58.6918 H         1 UNK         0.0808 
     99 H99        24.3190  -51.3947  -58.2430 H         1 UNK         0.0808 
    100 H100       24.3962  -52.7165  -57.0924 H         1 UNK         0.0808 
    101 H101       28.0883  -51.5763  -58.4648 H         1 UNK         0.3118 
    102 H102       28.1281  -50.5034  -60.9325 H         1 UNK         0.0546 
    103 H103       27.6936  -47.5552  -60.2168 H         1 UNK         0.0828 
    104 H104       26.8565  -48.4401  -61.4829 H         1 UNK         0.0828 
    105 H105       28.5827  -48.1540  -61.6142 H         1 UNK         0.0828 
    106 H106       30.0816  -50.2570  -59.9070 H         1 UNK         0.3005 
    107 H107       31.7025  -49.6582  -58.5561 H         1 UNK         0.1257 
    108 H108       31.7953  -47.2311  -58.7547 H         1 UNK         0.0775 
    109 H109       31.0468  -46.9926  -57.1972 H         1 UNK         0.0775 
    110 H110       34.9714  -45.8105  -57.2591 H         1 UNK         0.0840 
    111 H111       33.8760  -45.8732  -58.6087 H         1 UNK         0.0840 
    112 H112       31.7513  -49.3787  -55.8786 H         1 UNK         0.2987 
    113 H113       29.8681  -51.3154  -54.2913 H         1 UNK         0.0785 
    114 H114       31.1349  -53.4247  -53.8079 H         1 UNK         0.0798 
    115 H115       31.8648  -53.3454  -55.4113 H         1 UNK         0.0798 
    116 H116       30.1314  -53.5598  -55.2406 H         1 UNK         0.0798 
    117 H117       31.5256  -50.2551  -53.2948 H         1 UNK         0.3079 
    118 H118       33.8350  -50.1581  -52.3812 H         1 UNK         0.0794 
    119 H119       35.8804  -50.9539  -53.5612 H         1 UNK         0.0786 
    120 H120       36.0685  -49.2858  -53.0464 H         1 UNK         0.0786 
    121 H121       35.7361  -49.6548  -54.7382 H         1 UNK         0.0786 
    122 H122       34.0088  -47.9713  -54.3534 H         1 UNK         0.3032 
    123 H123       32.7666  -46.2237  -54.2863 H         1 UNK         0.1094 
    124 H124       29.8338  -46.7951  -53.6548 H         1 UNK         0.0794 
    125 H125       30.5349  -45.9083  -55.0185 H         1 UNK         0.0794 
    126 H126       30.6774  -47.6441  -54.9354 H         1 UNK         0.0794 
    127 H127       30.9271  -45.2762  -52.3106 H         1 UNK         0.3016 
@<TRIPOS>BOND
     1    1    2 1    
     2    1   67 1    
     3    1   68 1    
     4    1   69 1    
     5    2    3 2    
     6    2    4 am   BACKBONE|DICT|INTERRES
     7    4    5 1    
     8    4   70 1    
     9    5    6 1    
    10    5   65 1    
    11    5   71 1    
    12    6    7 1    
    13    6   72 1    
    14    6   73 1    
    15    7    8 1    
    16    8    9 1    
    17    8   74 1    
    18    8   75 1    
    19    9   10 ar   
    20    9   14 ar   
    21   10   11 ar   
    22   10   76 1    
    23   11   12 ar   
    24   11   48 1    
    25   12   13 ar   
    26   12   77 1    
    27   13   14 ar   
    28   13   15 1    
    29   14   78 1    
    30   15   16 1    
    31   15   79 1    
    32   15   80 1    
    33   16   17 1    
    34   17   18 1    
    35   17   81 1    
    36   17   82 1    
    37   18   19 1    
    38   18   22 1    
    39   18   83 1    
    40   19   20 am   BACKBONE|DICT|INTERRES
    41   19   21 2    
    42   20   84 1    
    43   20   85 1    
    44   22   23 am   BACKBONE|DICT|INTERRES
    45   22   86 1    
    46   23   24 2    
    47   23   25 1    
    48   25   26 1    
    49   25   27 1    
    50   25   87 1    
    51   26   88 1    
    52   26   89 1    
    53   26   90 1    
    54   27   28 am   BACKBONE|DICT|INTERRES
    55   27   91 1    
    56   28   29 2    
    57   28   30 1    
    58   30   31 1    
    59   30   32 1    
    60   30   92 1    
    61   31   93 1    
    62   31   94 1    
    63   31   95 1    
    64   32   33 am   BACKBONE|DICT|INTERRES
    65   32   96 1    
    66   33   34 2    
    67   33   35 1    
    68   35   36 1    
    69   35   37 1    
    70   35   97 1    
    71   36   98 1    
    72   36   99 1    
    73   36  100 1    
    74   37   38 am   BACKBONE|DICT|INTERRES
    75   37  101 1    
    76   38   39 2    
    77   38   40 1    
    78   40   41 1    
    79   40   42 1    
    80   40  102 1    
    81   41  103 1    
    82   41  104 1    
    83   41  105 1    
    84   42   43 am   BACKBONE|DICT|INTERRES
    85   42  106 1    
    86   43   44 2    
    87   43   45 1    
    88   45   46 1    
    89   45   49 1    
    90   45  107 1    
    91   46   47 1    
    92   46  108 1    
    93   46  109 1    
    94   47   48 1    
    95   48  110 1    
    96   48  111 1    
    97   49   50 am   BACKBONE|DICT|INTERRES
    98   49  112 1    
    99   50   51 2    
   100   50   52 1    
   101   52   53 1    
   102   52   54 1    
   103   52  113 1    
   104   53  114 1    
   105   53  115 1    
   106   53  116 1    
   107   54   55 am   BACKBONE|DICT|INTERRES
   108   54  117 1    
   109   55   56 2    
   110   55   57 1    
   111   57   58 1    
   112   57   59 1    
   113   57  118 1    
   114   58  119 1    
   115   58  120 1    
   116   58  121 1    
   117   59   60 am   BACKBONE|DICT|INTERRES
   118   59  122 1    
   119   60   61 2    
   120   60   62 1    
   121   62   63 1    
   122   62   64 1    
   123   62  123 1    
   124   63  124 1    
   125   63  125 1    
   126   63  126 1    
   127   64   65 am   BACKBONE|DICT|INTERRES
   128   64  127 1    
   129   65   66 2    
@<TRIPOS>SUBSTRUCTURE
     1 UNK         1 GROUP             0       ****    0 ROOT    
