@<TRIPOS>MOLECULE
3R134
127   129    1
SMALL
USER_CHARGES


@<TRIPOS>ATOM
      1 CA         33.5781  -46.3301  -58.1797 C.3       0 UNK        -0.1968 
      2 C          33.7517  -46.4492  -56.6733 C.2       0 UNK         0.4852 
      3 O          33.2320  -47.3867  -56.0714 O.2       0 UNK        -0.5359 
      4 N          34.5030  -45.5210  -56.0643 N.am      1 UNK        -0.4300 
      5 CA         34.7390  -45.4154  -54.6149 C.3       1 UNK         0.0863 
      6 C6         35.4578  -44.0820  -54.2775 C.3       11 UNK        -0.0953 
      7 S7         35.0144  -43.4260  -52.6339 S.3       11 UNK        -0.2369 
      8 C8         33.8237  -42.1161  -53.0588 C.3       11 UNK         0.0226 
      9 C9         32.4468  -42.6774  -53.3852 C.ar      11 UNK        -0.0699 
     10 C10        31.5199  -42.8916  -52.3601 C.ar      11 UNK        -0.0804 
     11 C11        30.2347  -43.3618  -52.6483 C.ar      11 UNK        -0.0871 
     12 C12        29.8864  -43.6348  -53.9733 C.ar      11 UNK        -0.1008 
     13 C13        30.8079  -43.4367  -55.0057 C.ar      11 UNK        -0.0735 
     14 C14        32.0852  -42.9524  -54.7080 C.ar      11 UNK        -0.0945 
     15 C15        30.4108  -43.7382  -56.4404 C.3       11 UNK         0.0169 
     16 S16        29.4128  -42.3823  -57.1331 S.3       11 UNK        -0.2669 
     17 C17        28.1005  -43.3246  -57.9784 C.3       11 UNK        -0.0850 
     18 CA         26.9314  -43.7106  -57.0194 C.3       10 UNK         0.0855 
     19 C          25.8154  -42.6295  -56.8907 C.2       10 UNK         0.5543 
     20 N          26.1746  -41.3532  -56.8957 N.am      10 UNK        -0.7343 
     21 O          24.6331  -42.9313  -56.7360 O.2       10 UNK        -0.5027 
     22 N          26.4301  -45.0608  -57.3017 N.am      10 UNK        -0.4495 
     23 C          25.8311  -45.4630  -58.4302 C.2       10 UNK         0.4903 
     24 O          25.5716  -44.7225  -59.3809 O.2       10 UNK        -0.4860 
     25 CA         25.5263  -46.9709  -58.5113 C.3       9 UNK         0.0227 
     26 CB         24.9985  -47.4170  -59.8911 C.3       9 UNK        -0.1964 
     27 N          26.6860  -47.7736  -58.1042 N.am      9 UNK        -0.4231 
     28 C          27.9116  -47.7867  -58.6545 C.2       9 UNK         0.5014 
     29 O          28.2186  -47.1746  -59.6782 O.2       9 UNK        -0.5270 
     30 CA         29.0004  -48.5928  -57.9209 C.3       8 UNK         0.0284 
     31 CB         29.9131  -47.6377  -57.1358 C.3       8 UNK        -0.1977 
     32 N          28.4671  -49.5914  -56.9936 N.am      8 UNK        -0.4342 
     33 C          27.8142  -50.7073  -57.3432 C.2       8 UNK         0.5039 
     34 O          27.6633  -51.0839  -58.5057 O.2       8 UNK        -0.5547 
     35 CA         27.1825  -51.5087  -56.1946 C.3       7 UNK         0.0281 
     36 CB         28.2157  -52.4468  -55.5487 C.3       7 UNK        -0.1963 
     37 N          26.5989  -50.6281  -55.1763 N.am      7 UNK        -0.4444 
     38 C          25.4684  -49.9252  -55.3405 C.2       7 UNK         0.5104 
     39 O          24.7747  -49.9735  -56.3554 O.2       7 UNK        -0.5100 
     40 CA         25.0481  -48.9914  -54.1925 C.3       6 UNK         0.0396 
     41 CB         24.1796  -49.7486  -53.1759 C.3       6 UNK        -0.1801 
     42 N          26.1868  -48.3820  -53.5022 N.am      6 UNK        -0.4747 
     43 C          26.9533  -47.4048  -54.0091 C.2       6 UNK         0.5012 
     44 O          26.7721  -46.8918  -55.1144 O.2       6 UNK        -0.5003 
     45 CA         28.1468  -46.9504  -53.1425 C.3       5 UNK         0.0782 
     46 C46        27.6898  -45.8655  -52.1356 C.3       11 UNK        -0.0868 
     47 S47        29.0312  -45.2799  -51.0400 S.3       11 UNK        -0.2515 
     48 C48        29.2161  -43.5367  -51.5312 C.3       11 UNK         0.0199 
     49 N          28.8380  -48.0649  -52.4780 N.am      5 UNK        -0.4607 
     50 C          29.3771  -49.1204  -53.0983 C.2       4 UNK         0.5031 
     51 O          29.2323  -49.3588  -54.2989 O.2       4 UNK        -0.5119 
     52 CA         30.1831  -50.0988  -52.2296 C.3       4 UNK         0.0263 
     53 CB         29.2895  -51.2560  -51.7551 C.3       4 UNK        -0.1967 
     54 N          31.3185  -50.6371  -52.9826 N.am      4 UNK        -0.4237 
     55 C          32.3665  -49.9012  -53.3772 C.2       3 UNK         0.4908 
     56 O          32.5628  -48.7433  -52.9994 O.2       3 UNK        -0.5102 
     57 CA         33.3341  -50.5749  -54.3640 C.3       3 UNK         0.0241 
     58 CB         32.6304  -50.8824  -55.6997 C.3       3 UNK        -0.1971 
     59 N          34.4652  -49.6882  -54.6331 N.am      3 UNK        -0.4139 
     60 C          35.7018  -49.8356  -54.1394 C.2       2 UNK         0.5016 
     61 O          36.0573  -50.8020  -53.4625 O.2       2 UNK        -0.5319 
     62 CA         36.7314  -48.7303  -54.4525 C.3       2 UNK         0.0286 
     63 CB         37.6827  -49.1839  -55.5722 C.3       2 UNK        -0.1963 
     64 N          36.1213  -47.4542  -54.8360 N.am      2 UNK        -0.4790 
     65 C          35.4719  -46.6333  -53.9967 C.2       1 UNK         0.5024 
     66 O          35.4324  -46.8156  -52.7795 O.2       1 UNK        -0.4888 
     67 H67        33.7736  -47.2900  -58.6573 H         1 UNK         0.0892 
     68 H68        34.2559  -45.5939  -58.6113 H         1 UNK         0.0892 
     69 H69        32.5575  -46.0330  -58.4172 H         1 UNK         0.0892 
     70 H70        34.9290  -44.7968  -56.6250 H         1 UNK         0.3107 
     71 H71        33.7466  -45.3983  -54.1581 H         1 UNK         0.0773 
     72 H72        35.2149  -43.3172  -55.0164 H         1 UNK         0.0680 
     73 H73        36.5427  -44.1924  -54.3308 H         1 UNK         0.0680 
     74 H74        33.7459  -41.4333  -52.2113 H         1 UNK         0.0650 
     75 H75        34.2036  -41.5180  -53.8884 H         1 UNK         0.0650 
     76 H76        31.7970  -42.6752  -51.3372 H         1 UNK         0.1397 
     77 H77        28.8927  -43.9901  -54.2044 H         1 UNK         0.1363 
     78 H78        32.7950  -42.7840  -55.5058 H         1 UNK         0.1355 
     79 H79        29.8505  -44.6735  -56.4606 H         1 UNK         0.0707 
     80 H80        31.2916  -43.8947  -57.0650 H         1 UNK         0.0707 
     81 H81        28.5584  -44.2152  -58.4134 H         1 UNK         0.1034 
     82 H82        27.7349  -42.7532  -58.8339 H         1 UNK         0.1034 
     83 H83        27.3326  -43.8061  -56.0105 H         1 UNK         0.0482 
     84 H84        27.1469  -41.0989  -56.9894 H         1 UNK         0.3460 
     85 H85        25.4707  -40.6389  -56.7950 H         1 UNK         0.3460 
     86 H86        26.5598  -45.7411  -56.5560 H         1 UNK         0.2989 
     87 H87        24.7438  -47.1688  -57.7771 H         1 UNK         0.0559 
     88 H88        25.7146  -47.2108  -60.6871 H         1 UNK         0.0848 
     89 H89        24.0752  -46.8938  -60.1422 H         1 UNK         0.0848 
     90 H90        24.7802  -48.4848  -59.9043 H         1 UNK         0.0848 
     91 H91        26.5670  -48.2960  -57.2474 H         1 UNK         0.3144 
     92 H92        29.5987  -49.1095  -58.6740 H         1 UNK         0.0727 
     93 H93        30.7270  -48.1751  -56.6508 H         1 UNK         0.0790 
     94 H94        29.3631  -47.1031  -56.3609 H         1 UNK         0.0790 
     95 H95        30.3608  -46.8929  -57.7940 H         1 UNK         0.0790 
     96 H96        28.6206  -49.4169  -56.0003 H         1 UNK         0.3215 
     97 H97        26.3827  -52.1225  -56.6154 H         1 UNK         0.0863 
     98 H98        28.6163  -53.1453  -56.2845 H         1 UNK         0.0808 
     99 H99        27.7700  -53.0397  -54.7500 H         1 UNK         0.0808 
    100 H100       29.0607  -51.8987  -55.1315 H         1 UNK         0.0808 
    101 H101       27.1439  -50.4739  -54.3403 H         1 UNK         0.3118 
    102 H102       24.4429  -48.1902  -54.6228 H         1 UNK         0.0546 
    103 H103       23.3093  -50.1926  -53.6615 H         1 UNK         0.0828 
    104 H104       23.8078  -49.0824  -52.3973 H         1 UNK         0.0828 
    105 H105       24.7299  -50.5569  -52.6928 H         1 UNK         0.0828 
    106 H106       26.4148  -48.7409  -52.5859 H         1 UNK         0.3005 
    107 H107       28.8727  -46.4998  -53.8227 H         1 UNK         0.1257 
    108 H108       26.8972  -46.2541  -51.4931 H         1 UNK         0.0775 
    109 H109       27.2513  -45.0182  -52.6656 H         1 UNK         0.0775 
    110 H110       28.2543  -43.1155  -51.8270 H         1 UNK         0.0840 
    111 H111       29.5268  -42.9680  -50.6533 H         1 UNK         0.0840 
    112 H112       29.0048  -47.9411  -51.4895 H         1 UNK         0.2987 
    113 H113       30.5684  -49.5677  -51.3564 H         1 UNK         0.0785 
    114 H114       28.4470  -50.8853  -51.1697 H         1 UNK         0.0798 
    115 H115       29.8423  -51.9479  -51.1193 H         1 UNK         0.0798 
    116 H116       28.8803  -51.8241  -52.5910 H         1 UNK         0.0798 
    117 H117       31.2154  -51.5720  -53.3479 H         1 UNK         0.3079 
    118 H118       33.6762  -51.5122  -53.9205 H         1 UNK         0.0794 
    119 H119       32.2180  -49.9804  -56.1529 H         1 UNK         0.0786 
    120 H120       31.8070  -51.5850  -55.5685 H         1 UNK         0.0786 
    121 H121       33.3209  -51.3278  -56.4160 H         1 UNK         0.0786 
    122 H122       34.2237  -48.8198  -55.1037 H         1 UNK         0.3032 
    123 H123       37.3192  -48.5709  -53.5455 H         1 UNK         0.1094 
    124 H124       38.4627  -48.4445  -55.7551 H         1 UNK         0.0794 
    125 H125       38.1804  -50.1177  -55.3064 H         1 UNK         0.0794 
    126 H126       37.1515  -49.3536  -56.5097 H         1 UNK         0.0794 
    127 H127       36.1098  -47.2307  -55.8206 H         1 UNK         0.3016 
@<TRIPOS>BOND
     1    1    2 1    
     2    1   67 1    
     3    1   68 1    
     4    1   69 1    
     5    2    3 2    
     6    2    4 am   BACKBONE|DICT|INTERRES
     7    4    5 1    
     8    4   70 1    
     9    5    6 1    
    10    5   65 1    
    11    5   71 1    
    12    6    7 1    
    13    6   72 1    
    14    6   73 1    
    15    7    8 1    
    16    8    9 1    
    17    8   74 1    
    18    8   75 1    
    19    9   10 ar   
    20    9   14 ar   
    21   10   11 ar   
    22   10   76 1    
    23   11   12 ar   
    24   11   48 1    
    25   12   13 ar   
    26   12   77 1    
    27   13   14 ar   
    28   13   15 1    
    29   14   78 1    
    30   15   16 1    
    31   15   79 1    
    32   15   80 1    
    33   16   17 1    
    34   17   18 1    
    35   17   81 1    
    36   17   82 1    
    37   18   19 1    
    38   18   22 1    
    39   18   83 1    
    40   19   20 am   BACKBONE|DICT|INTERRES
    41   19   21 2    
    42   20   84 1    
    43   20   85 1    
    44   22   23 am   BACKBONE|DICT|INTERRES
    45   22   86 1    
    46   23   24 2    
    47   23   25 1    
    48   25   26 1    
    49   25   27 1    
    50   25   87 1    
    51   26   88 1    
    52   26   89 1    
    53   26   90 1    
    54   27   28 am   BACKBONE|DICT|INTERRES
    55   27   91 1    
    56   28   29 2    
    57   28   30 1    
    58   30   31 1    
    59   30   32 1    
    60   30   92 1    
    61   31   93 1    
    62   31   94 1    
    63   31   95 1    
    64   32   33 am   BACKBONE|DICT|INTERRES
    65   32   96 1    
    66   33   34 2    
    67   33   35 1    
    68   35   36 1    
    69   35   37 1    
    70   35   97 1    
    71   36   98 1    
    72   36   99 1    
    73   36  100 1    
    74   37   38 am   BACKBONE|DICT|INTERRES
    75   37  101 1    
    76   38   39 2    
    77   38   40 1    
    78   40   41 1    
    79   40   42 1    
    80   40  102 1    
    81   41  103 1    
    82   41  104 1    
    83   41  105 1    
    84   42   43 am   BACKBONE|DICT|INTERRES
    85   42  106 1    
    86   43   44 2    
    87   43   45 1    
    88   45   46 1    
    89   45   49 1    
    90   45  107 1    
    91   46   47 1    
    92   46  108 1    
    93   46  109 1    
    94   47   48 1    
    95   48  110 1    
    96   48  111 1    
    97   49   50 am   BACKBONE|DICT|INTERRES
    98   49  112 1    
    99   50   51 2    
   100   50   52 1    
   101   52   53 1    
   102   52   54 1    
   103   52  113 1    
   104   53  114 1    
   105   53  115 1    
   106   53  116 1    
   107   54   55 am   BACKBONE|DICT|INTERRES
   108   54  117 1    
   109   55   56 2    
   110   55   57 1    
   111   57   58 1    
   112   57   59 1    
   113   57  118 1    
   114   58  119 1    
   115   58  120 1    
   116   58  121 1    
   117   59   60 am   BACKBONE|DICT|INTERRES
   118   59  122 1    
   119   60   61 2    
   120   60   62 1    
   121   62   63 1    
   122   62   64 1    
   123   62  123 1    
   124   63  124 1    
   125   63  125 1    
   126   63  126 1    
   127   64   65 am   BACKBONE|DICT|INTERRES
   128   64  127 1    
   129   65   66 2    
@<TRIPOS>SUBSTRUCTURE
     1 UNK         1 GROUP             0       ****    0 ROOT    
