@<TRIPOS>MOLECULE
3R134
127   129    1
SMALL
USER_CHARGES


@<TRIPOS>ATOM
      1 CA         36.8521  -44.6431  -54.6433 C.3       0 UNK        -0.1968 
      2 C          35.6072  -45.4169  -54.2382 C.2       0 UNK         0.4852 
      3 O          35.2357  -46.3778  -54.9120 O.2       0 UNK        -0.5359 
      4 N          34.9638  -45.0238  -53.1308 N.am      1 UNK        -0.4300 
      5 CA         33.7241  -45.6069  -52.5966 C.3       1 UNK         0.0863 
      6 C6         32.9340  -44.5593  -51.7617 C.3       11 UNK        -0.0953 
      7 S7         31.1254  -44.7069  -51.9722 S.3       11 UNK        -0.2369 
      8 C8         30.6558  -43.0242  -52.5137 C.3       11 UNK         0.0226 
      9 C9         30.6702  -42.8174  -54.0285 C.ar      11 UNK        -0.0699 
     10 C10        31.6808  -43.3513  -54.8368 C.ar      11 UNK        -0.0804 
     11 C11        31.6634  -43.1688  -56.2216 C.ar      11 UNK        -0.0871 
     12 C12        30.6455  -42.4091  -56.8006 C.ar      11 UNK        -0.1008 
     13 C13        29.6455  -41.8432  -56.0072 C.ar      11 UNK        -0.0735 
     14 C14        29.6613  -42.0521  -54.6245 C.ar      11 UNK        -0.0945 
     15 C15        28.5554  -41.0046  -56.6545 C.3       11 UNK         0.0169 
     16 S16        27.2397  -42.0484  -57.3520 S.3       11 UNK        -0.2669 
     17 C17        26.3365  -42.5552  -55.8471 C.3       11 UNK        -0.0850 
     18 CA         26.6340  -44.0134  -55.3778 C.3       10 UNK         0.0855 
     19 C          25.8966  -44.3269  -54.0380 C.2       10 UNK         0.5543 
     20 N          25.3692  -45.5226  -53.8202 N.am      10 UNK        -0.7343 
     21 O          25.8216  -43.4712  -53.1594 O.2       10 UNK        -0.5027 
     22 N          26.4788  -45.0043  -56.4638 N.am      10 UNK        -0.4495 
     23 C          25.3402  -45.2401  -57.1303 C.2       10 UNK         0.4903 
     24 O          24.2364  -44.8218  -56.7792 O.2       10 UNK        -0.4860 
     25 CA         25.4442  -45.9979  -58.4594 C.3       9 UNK         0.0227 
     26 CB         25.9336  -45.0425  -59.5680 C.3       9 UNK        -0.1964 
     27 N          26.2874  -47.1954  -58.3993 N.am      9 UNK        -0.4231 
     28 C          26.2227  -48.1820  -59.3073 C.2       9 UNK         0.5014 
     29 O          25.4357  -48.1889  -60.2560 O.2       9 UNK        -0.5270 
     30 CA         27.1965  -49.3624  -59.1590 C.3       8 UNK         0.0284 
     31 CB         28.5624  -49.0089  -59.7694 C.3       8 UNK        -0.1977 
     32 N          27.3662  -49.8111  -57.7775 N.am      8 UNK        -0.4342 
     33 C          26.4062  -50.3810  -57.0353 C.2       8 UNK         0.5039 
     34 O          25.2761  -50.6393  -57.4521 O.2       8 UNK        -0.5547 
     35 CA         26.7586  -50.7041  -55.5725 C.3       7 UNK         0.0281 
     36 CB         27.4547  -52.0706  -55.4670 C.3       7 UNK        -0.1963 
     37 N          27.5933  -49.6775  -54.9434 N.am      7 UNK        -0.4444 
     38 C          27.2217  -48.4032  -54.7591 C.2       7 UNK         0.5104 
     39 O          26.1167  -47.9590  -55.0690 O.2       7 UNK        -0.5100 
     40 CA         28.2822  -47.4496  -54.1859 C.3       6 UNK         0.0396 
     41 CB         28.4485  -47.6424  -52.6707 C.3       6 UNK        -0.1801 
     42 N          29.5667  -47.5966  -54.8686 N.am      6 UNK        -0.4747 
     43 C          29.7840  -47.2468  -56.1465 C.2       6 UNK         0.5012 
     44 O          28.9334  -46.7030  -56.8564 O.2       6 UNK        -0.5003 
     45 CA         31.1572  -47.6335  -56.7413 C.3       5 UNK         0.0782 
     46 C46        32.2091  -46.5092  -56.5804 C.3       11 UNK        -0.0868 
     47 S47        32.1408  -45.2898  -57.9326 S.3       11 UNK        -0.2515 
     48 C48        32.7412  -43.7876  -57.0980 C.3       11 UNK         0.0199 
     49 N          31.6527  -48.9056  -56.2002 N.am      5 UNK        -0.4607 
     50 C          31.1021  -50.0975  -56.4645 C.2       4 UNK         0.5031 
     51 O          30.1162  -50.2470  -57.1830 O.2       4 UNK        -0.5119 
     52 CA         31.7304  -51.3225  -55.7835 C.3       4 UNK         0.0263 
     53 CB         33.0084  -51.7570  -56.5178 C.3       4 UNK        -0.1967 
     54 N          32.0260  -51.1153  -54.3638 N.am      4 UNK        -0.4237 
     55 C          31.1296  -50.8184  -53.4153 C.2       3 UNK         0.4908 
     56 O          29.9372  -50.6264  -53.6483 O.2       3 UNK        -0.5102 
     57 CA         31.6316  -50.7025  -51.9643 C.3       3 UNK         0.0241 
     58 CB         31.7403  -52.0929  -51.3097 C.3       3 UNK        -0.1971 
     59 N          32.8697  -49.9275  -51.7908 N.am      3 UNK        -0.4139 
     60 C          34.1076  -50.1848  -52.2364 C.2       2 UNK         0.5016 
     61 O          34.4012  -51.1694  -52.9178 O.2       2 UNK        -0.5319 
     62 CA         35.1794  -49.1304  -51.9016 C.3       2 UNK         0.0286 
     63 CB         36.5701  -49.5035  -52.4486 C.3       2 UNK        -0.1963 
     64 N          34.8117  -47.8111  -52.4214 N.am      2 UNK        -0.4790 
     65 C          33.9588  -46.9473  -51.8564 C.2       1 UNK         0.5024 
     66 O          33.3660  -47.1968  -50.8052 O.2       1 UNK        -0.4888 
     67 H67        36.7262  -44.2307  -55.6439 H         1 UNK         0.0892 
     68 H68        37.7176  -45.3049  -54.6537 H         1 UNK         0.0892 
     69 H69        37.0616  -43.8198  -53.9609 H         1 UNK         0.0892 
     70 H70        35.3494  -44.2624  -52.5898 H         1 UNK         0.3107 
     71 H71        33.1121  -45.8768  -53.4583 H         1 UNK         0.0773 
     72 H72        33.1775  -44.6134  -50.6990 H         1 UNK         0.0680 
     73 H73        33.2215  -43.5505  -52.0614 H         1 UNK         0.0680 
     74 H74        31.2972  -42.2807  -52.0393 H         1 UNK         0.0650 
     75 H75        29.6504  -42.8388  -52.1322 H         1 UNK         0.0650 
     76 H76        32.4828  -43.9186  -54.3955 H         1 UNK         0.1397 
     77 H77        30.6273  -42.2635  -57.8723 H         1 UNK         0.1363 
     78 H78        28.8834  -41.6182  -54.0112 H         1 UNK         0.1355 
     79 H79        28.9876  -40.4055  -57.4574 H         1 UNK         0.0707 
     80 H80        28.1339  -40.2935  -55.9424 H         1 UNK         0.0707 
     81 H81        25.2700  -42.4360  -56.0449 H         1 UNK         0.1034 
     82 H82        26.5605  -41.8442  -55.0504 H         1 UNK         0.1034 
     83 H83        27.6922  -44.0580  -55.1209 H         1 UNK         0.0482 
     84 H84        24.8961  -45.6986  -52.9491 H         1 UNK         0.3460 
     85 H85        25.4705  -46.2699  -54.5003 H         1 UNK         0.3460 
     86 H86        27.3455  -45.4097  -56.7997 H         1 UNK         0.2989 
     87 H87        24.4291  -46.3150  -58.7093 H         1 UNK         0.0559 
     88 H88        25.8492  -45.4926  -60.5568 H         1 UNK         0.0848 
     89 H89        26.9752  -44.7554  -59.4182 H         1 UNK         0.0848 
     90 H90        25.3437  -44.1248  -59.5836 H         1 UNK         0.0848 
     91 H91        26.9531  -47.2623  -57.6376 H         1 UNK         0.3144 
     92 H92        26.7849  -50.2007  -59.7253 H         1 UNK         0.0727 
     93 H93        29.2387  -49.8637  -59.7532 H         1 UNK         0.0790 
     94 H94        29.0425  -48.1884  -59.2363 H         1 UNK         0.0790 
     95 H95        28.4560  -48.7017  -60.8107 H         1 UNK         0.0790 
     96 H96        28.3033  -49.7430  -57.3868 H         1 UNK         0.3215 
     97 H97        25.8224  -50.7537  -55.0124 H         1 UNK         0.0863 
     98 H98        27.6441  -52.3398  -54.4277 H         1 UNK         0.0808 
     99 H99        28.4098  -52.0790  -55.9929 H         1 UNK         0.0808 
    100 H100       26.8362  -52.8580  -55.8996 H         1 UNK         0.0808 
    101 H101       28.5104  -49.9715  -54.6114 H         1 UNK         0.3118 
    102 H102       27.9464  -46.4267  -54.3507 H         1 UNK         0.0546 
    103 H103       28.7681  -48.6515  -52.4139 H         1 UNK         0.0828 
    104 H104       27.5043  -47.4618  -52.1553 H         1 UNK         0.0828 
    105 H105       29.1767  -46.9453  -52.2587 H         1 UNK         0.0828 
    106 H106       30.2938  -48.0896  -54.3723 H         1 UNK         0.3005 
    107 H107       30.9971  -47.7988  -57.8093 H         1 UNK         0.1257 
    108 H108       32.1181  -46.0181  -55.6118 H         1 UNK         0.0775 
    109 H109       33.2165  -46.9275  -56.6060 H         1 UNK         0.0775 
    110 H110       33.6347  -44.0223  -56.5168 H         1 UNK         0.0840 
    111 H111       33.0520  -43.0649  -57.8540 H         1 UNK         0.0840 
    112 H112       32.4653  -48.8671  -55.6030 H         1 UNK         0.2987 
    113 H113       31.0071  -52.1379  -55.8491 H         1 UNK         0.0785 
    114 H114       33.7934  -51.0031  -56.4473 H         1 UNK         0.0798 
    115 H115       32.8119  -51.9276  -57.5774 H         1 UNK         0.0798 
    116 H116       33.4021  -52.6878  -56.1088 H         1 UNK         0.0798 
    117 H117       32.9877  -51.2552  -54.0569 H         1 UNK         0.3079 
    118 H118       30.8655  -50.1481  -51.4197 H         1 UNK         0.0794 
    119 H119       32.4893  -52.7181  -51.7966 H         1 UNK         0.0786 
    120 H120       30.7893  -52.6245  -51.3662 H         1 UNK         0.0786 
    121 H121       32.0045  -52.0141  -50.2551 H         1 UNK         0.0786 
    122 H122       32.7615  -49.0560  -51.2798 H         1 UNK         0.3032 
    123 H123       35.2516  -49.0789  -50.8126 H         1 UNK         0.1094 
    124 H124       37.3212  -48.7698  -52.1552 H         1 UNK         0.0794 
    125 H125       36.8962  -50.4704  -52.0627 H         1 UNK         0.0794 
    126 H126       36.5721  -49.5681  -53.5375 H         1 UNK         0.0794 
    127 H127       35.1979  -47.5488  -53.3241 H         1 UNK         0.3016 
@<TRIPOS>BOND
     1    1    2 1    
     2    1   67 1    
     3    1   68 1    
     4    1   69 1    
     5    2    3 2    
     6    2    4 am   BACKBONE|DICT|INTERRES
     7    4    5 1    
     8    4   70 1    
     9    5    6 1    
    10    5   65 1    
    11    5   71 1    
    12    6    7 1    
    13    6   72 1    
    14    6   73 1    
    15    7    8 1    
    16    8    9 1    
    17    8   74 1    
    18    8   75 1    
    19    9   10 ar   
    20    9   14 ar   
    21   10   11 ar   
    22   10   76 1    
    23   11   12 ar   
    24   11   48 1    
    25   12   13 ar   
    26   12   77 1    
    27   13   14 ar   
    28   13   15 1    
    29   14   78 1    
    30   15   16 1    
    31   15   79 1    
    32   15   80 1    
    33   16   17 1    
    34   17   18 1    
    35   17   81 1    
    36   17   82 1    
    37   18   19 1    
    38   18   22 1    
    39   18   83 1    
    40   19   20 am   BACKBONE|DICT|INTERRES
    41   19   21 2    
    42   20   84 1    
    43   20   85 1    
    44   22   23 am   BACKBONE|DICT|INTERRES
    45   22   86 1    
    46   23   24 2    
    47   23   25 1    
    48   25   26 1    
    49   25   27 1    
    50   25   87 1    
    51   26   88 1    
    52   26   89 1    
    53   26   90 1    
    54   27   28 am   BACKBONE|DICT|INTERRES
    55   27   91 1    
    56   28   29 2    
    57   28   30 1    
    58   30   31 1    
    59   30   32 1    
    60   30   92 1    
    61   31   93 1    
    62   31   94 1    
    63   31   95 1    
    64   32   33 am   BACKBONE|DICT|INTERRES
    65   32   96 1    
    66   33   34 2    
    67   33   35 1    
    68   35   36 1    
    69   35   37 1    
    70   35   97 1    
    71   36   98 1    
    72   36   99 1    
    73   36  100 1    
    74   37   38 am   BACKBONE|DICT|INTERRES
    75   37  101 1    
    76   38   39 2    
    77   38   40 1    
    78   40   41 1    
    79   40   42 1    
    80   40  102 1    
    81   41  103 1    
    82   41  104 1    
    83   41  105 1    
    84   42   43 am   BACKBONE|DICT|INTERRES
    85   42  106 1    
    86   43   44 2    
    87   43   45 1    
    88   45   46 1    
    89   45   49 1    
    90   45  107 1    
    91   46   47 1    
    92   46  108 1    
    93   46  109 1    
    94   47   48 1    
    95   48  110 1    
    96   48  111 1    
    97   49   50 am   BACKBONE|DICT|INTERRES
    98   49  112 1    
    99   50   51 2    
   100   50   52 1    
   101   52   53 1    
   102   52   54 1    
   103   52  113 1    
   104   53  114 1    
   105   53  115 1    
   106   53  116 1    
   107   54   55 am   BACKBONE|DICT|INTERRES
   108   54  117 1    
   109   55   56 2    
   110   55   57 1    
   111   57   58 1    
   112   57   59 1    
   113   57  118 1    
   114   58  119 1    
   115   58  120 1    
   116   58  121 1    
   117   59   60 am   BACKBONE|DICT|INTERRES
   118   59  122 1    
   119   60   61 2    
   120   60   62 1    
   121   62   63 1    
   122   62   64 1    
   123   62  123 1    
   124   63  124 1    
   125   63  125 1    
   126   63  126 1    
   127   64   65 am   BACKBONE|DICT|INTERRES
   128   64  127 1    
   129   65   66 2    
@<TRIPOS>SUBSTRUCTURE
     1 UNK         1 GROUP             0       ****    0 ROOT    
