@<TRIPOS>MOLECULE
3R134
127   129    1
SMALL
USER_CHARGES


@<TRIPOS>ATOM
      1 CA         37.8936  -46.4078  -49.9795 C.3       0 UNK        -0.1968 
      2 C          36.7044  -46.0130  -50.8427 C.2       0 UNK         0.4852 
      3 O          35.9249  -45.1475  -50.4446 O.2       0 UNK        -0.5359 
      4 N          36.5534  -46.6545  -52.0116 N.am      1 UNK        -0.4300 
      5 CA         35.5081  -46.4287  -53.0250 C.3       1 UNK         0.0863 
      6 C6         35.4508  -44.9530  -53.5145 C.3       11 UNK        -0.0953 
      7 S7         34.9901  -44.7867  -55.2725 S.3       11 UNK        -0.2369 
      8 C8         34.3371  -43.0876  -55.3105 C.3       11 UNK         0.0226 
      9 C9         32.8160  -43.0491  -55.2379 C.ar      11 UNK        -0.0699 
     10 C10        32.1570  -43.1847  -54.0110 C.ar      11 UNK        -0.0804 
     11 C11        30.7614  -43.1120  -53.9418 C.ar      11 UNK        -0.0871 
     12 C12        30.0276  -42.8834  -55.1078 C.ar      11 UNK        -0.1008 
     13 C13        30.6717  -42.7607  -56.3400 C.ar      11 UNK        -0.0735 
     14 C14        32.0656  -42.8468  -56.4016 C.ar      11 UNK        -0.0945 
     15 C15        29.8471  -42.5455  -57.5964 C.3       11 UNK         0.0169 
     16 S16        29.1720  -44.1247  -58.1841 S.3       11 UNK        -0.2669 
     17 C17        27.8984  -43.5448  -59.3561 C.3       11 UNK        -0.0850 
     18 CA         26.4695  -43.4954  -58.7466 C.3       10 UNK         0.0855 
     19 C          25.4503  -43.0617  -59.8406 C.2       10 UNK         0.5543 
     20 N          24.6538  -43.9673  -60.3971 N.am      10 UNK        -0.7343 
     21 O          25.3907  -41.8860  -60.1912 O.2       10 UNK        -0.5027 
     22 N          26.1394  -44.7509  -58.0566 N.am      10 UNK        -0.4495 
     23 C          25.0376  -45.0197  -57.3437 C.2       10 UNK         0.4903 
     24 O          24.1701  -44.1837  -57.0879 O.2       10 UNK        -0.4860 
     25 CA         24.8794  -46.4660  -56.8205 C.3       9 UNK         0.0227 
     26 CB         23.4300  -46.9787  -56.9549 C.3       9 UNK        -0.1964 
     27 N          25.8360  -47.4234  -57.4041 N.am      9 UNK        -0.4231 
     28 C          25.9440  -47.7692  -58.6986 C.2       9 UNK         0.5014 
     29 O          25.1791  -47.3744  -59.5801 O.2       9 UNK        -0.5270 
     30 CA         27.1473  -48.6310  -59.1045 C.3       8 UNK         0.0284 
     31 CB         28.3003  -47.7331  -59.5831 C.3       8 UNK        -0.1977 
     32 N          27.6268  -49.5065  -58.0334 N.am      8 UNK        -0.4342 
     33 C          27.1105  -50.7175  -57.7862 C.2       8 UNK         0.5039 
     34 O          26.1323  -51.1790  -58.3767 O.2       8 UNK        -0.5547 
     35 CA         27.8207  -51.5781  -56.7308 C.3       7 UNK         0.0281 
     36 CB         29.1519  -52.1173  -57.2799 C.3       7 UNK        -0.1963 
     37 N          28.0488  -50.8756  -55.4674 N.am      7 UNK        -0.4444 
     38 C          27.0758  -50.5383  -54.6092 C.2       7 UNK         0.5104 
     39 O          25.8809  -50.7661  -54.8013 O.2       7 UNK        -0.5100 
     40 CA         27.5016  -49.8396  -53.3067 C.3       6 UNK         0.0396 
     41 CB         27.9876  -50.8704  -52.2758 C.3       6 UNK        -0.1801 
     42 N          28.5340  -48.8211  -53.4997 N.am      6 UNK        -0.4747 
     43 C          28.3734  -47.6940  -54.2096 C.2       6 UNK         0.5012 
     44 O          27.3341  -47.3937  -54.7967 O.2       6 UNK        -0.5003 
     45 CA         29.6080  -46.7784  -54.3287 C.3       5 UNK         0.0782 
     46 C46        29.9293  -46.0820  -52.9794 C.3       11 UNK        -0.0868 
     47 S47        28.8453  -44.6573  -52.6367 S.3       11 UNK        -0.2515 
     48 C48        30.0412  -43.2793  -52.6103 C.3       11 UNK         0.0199 
     49 N          30.7690  -47.5098  -54.8428 N.am      5 UNK        -0.4607 
     50 C          30.8145  -48.2364  -55.9692 C.2       4 UNK         0.5031 
     51 O          29.8858  -48.3428  -56.7694 O.2       4 UNK        -0.5119 
     52 CA         32.1001  -49.0409  -56.2078 C.3       4 UNK         0.0263 
     53 CB         33.2041  -48.1492  -56.7977 C.3       4 UNK        -0.1967 
     54 N          32.5749  -49.6863  -54.9811 N.am      4 UNK        -0.4237 
     55 C          31.9228  -50.6691  -54.3412 C.2       3 UNK         0.4908 
     56 O          30.8732  -51.1715  -54.7406 O.2       3 UNK        -0.5102 
     57 CA         32.5203  -51.1399  -53.0056 C.3       3 UNK         0.0241 
     58 CB         33.7192  -52.0732  -53.2388 C.3       3 UNK        -0.1971 
     59 N          32.9194  -50.0214  -52.1486 N.am      3 UNK        -0.4139 
     60 C          32.0646  -49.1365  -51.6162 C.2       2 UNK         0.5016 
     61 O          30.8423  -49.1979  -51.7482 O.2       2 UNK        -0.5319 
     62 CA         32.6789  -47.9603  -50.8382 C.3       2 UNK         0.0286 
     63 CB         32.8808  -48.3370  -49.3623 C.3       2 UNK        -0.1963 
     64 N          33.9454  -47.4660  -51.3930 N.am      2 UNK        -0.4790 
     65 C          34.1131  -46.9720  -52.6297 C.2       1 UNK         0.5024 
     66 O          33.2133  -46.9716  -53.4680 O.2       1 UNK        -0.4888 
     67 H67        38.5368  -45.5444  -49.8116 H         1 UNK         0.0892 
     68 H68        37.5508  -46.7705  -49.0108 H         1 UNK         0.0892 
     69 H69        38.4933  -47.1915  -50.4422 H         1 UNK         0.0892 
     70 H70        37.2271  -47.3674  -52.2579 H         1 UNK         0.3107 
     71 H71        35.8225  -47.0451  -53.8688 H         1 UNK         0.0773 
     72 H72        34.7833  -44.3606  -52.8876 H         1 UNK         0.0680 
     73 H73        36.4328  -44.4876  -53.4165 H         1 UNK         0.0680 
     74 H74        34.6778  -42.6125  -56.2316 H         1 UNK         0.0650 
     75 H75        34.7655  -42.4996  -54.4976 H         1 UNK         0.0650 
     76 H76        32.7310  -43.3472  -53.1100 H         1 UNK         0.1397 
     77 H77        28.9484  -42.8261  -55.0600 H         1 UNK         0.1363 
     78 H78        32.5662  -42.7506  -57.3554 H         1 UNK         0.1355 
     79 H79        29.0311  -41.8528  -57.3835 H         1 UNK         0.0707 
     80 H80        30.4488  -42.0891  -58.3839 H         1 UNK         0.0707 
     81 H81        28.1840  -42.5647  -59.7438 H         1 UNK         0.1034 
     82 H82        27.9176  -44.2194  -60.2145 H         1 UNK         0.1034 
     83 H83        26.4583  -42.7140  -57.9847 H         1 UNK         0.0482 
     84 H84        23.9958  -43.6817  -61.1048 H         1 UNK         0.3460 
     85 H85        24.7076  -44.9357  -60.1154 H         1 UNK         0.3460 
     86 H86        26.8091  -45.4944  -58.1789 H         1 UNK         0.2989 
     87 H87        25.1073  -46.4210  -55.7555 H         1 UNK         0.0559 
     88 H88        23.0901  -46.9744  -57.9907 H         1 UNK         0.0848 
     89 H89        22.7398  -46.3537  -56.3869 H         1 UNK         0.0848 
     90 H90        23.3325  -47.9949  -56.5731 H         1 UNK         0.0848 
     91 H91        26.5300  -47.7720  -56.7507 H         1 UNK         0.3144 
     92 H92        26.8364  -49.2459  -59.9522 H         1 UNK         0.0727 
     93 H93        28.6622  -47.0802  -58.7884 H         1 UNK         0.0790 
     94 H94        27.9845  -47.0956  -60.4101 H         1 UNK         0.0790 
     95 H95        29.1443  -48.3262  -59.9355 H         1 UNK         0.0790 
     96 H96        28.4383  -49.1851  -57.5044 H         1 UNK         0.3215 
     97 H97        27.1776  -52.4360  -56.5218 H         1 UNK         0.0863 
     98 H98        29.6078  -52.8244  -56.5866 H         1 UNK         0.0808 
     99 H99        29.8699  -51.3164  -57.4596 H         1 UNK         0.0808 
    100 H100       29.0026  -52.6417  -58.2246 H         1 UNK         0.0808 
    101 H101       29.0161  -50.7026  -55.2067 H         1 UNK         0.3118 
    102 H102       26.6213  -49.3405  -52.8963 H         1 UNK         0.0546 
    103 H103       27.2313  -51.6365  -52.1004 H         1 UNK         0.0828 
    104 H104       28.2017  -50.3997  -51.3160 H         1 UNK         0.0828 
    105 H105       28.8958  -51.3753  -52.6081 H         1 UNK         0.0828 
    106 H106       29.4242  -48.9832  -53.0332 H         1 UNK         0.3005 
    107 H107       29.3804  -46.0120  -55.0735 H         1 UNK         0.1257 
    108 H108       30.9612  -45.7313  -52.9784 H         1 UNK         0.0775 
    109 H109       29.8607  -46.7744  -52.1399 H         1 UNK         0.0775 
    110 H110       29.5113  -42.3554  -52.3749 H         1 UNK         0.0840 
    111 H111       30.7515  -43.4420  -51.7980 H         1 UNK         0.0840 
    112 H112       31.6155  -47.4486  -54.2825 H         1 UNK         0.2987 
    113 H113       31.8729  -49.8249  -56.9332 H         1 UNK         0.0785 
    114 H114       33.4827  -47.3433  -56.1184 H         1 UNK         0.0798 
    115 H115       32.8725  -47.6866  -57.7283 H         1 UNK         0.0798 
    116 H116       34.1020  -48.7242  -57.0237 H         1 UNK         0.0798 
    117 H117       33.4005  -49.2948  -54.5532 H         1 UNK         0.3079 
    118 H118       31.7469  -51.7044  -52.4799 H         1 UNK         0.0794 
    119 H119       34.5451  -51.5612  -53.7343 H         1 UNK         0.0786 
    120 H120       33.4366  -52.9194  -53.8667 H         1 UNK         0.0786 
    121 H121       34.0924  -52.4806  -52.2990 H         1 UNK         0.0786 
    122 H122       33.9065  -49.8928  -51.9810 H         1 UNK         0.3032 
    123 H123       31.9629  -47.1373  -50.8826 H         1 UNK         0.1094 
    124 H124       33.2138  -47.4802  -48.7760 H         1 UNK         0.0794 
    125 H125       31.9478  -48.6874  -48.9182 H         1 UNK         0.0794 
    126 H126       33.6174  -49.1327  -49.2439 H         1 UNK         0.0794 
    127 H127       34.7297  -47.4126  -50.7594 H         1 UNK         0.3016 
@<TRIPOS>BOND
     1    1    2 1    
     2    1   67 1    
     3    1   68 1    
     4    1   69 1    
     5    2    3 2    
     6    2    4 am   BACKBONE|DICT|INTERRES
     7    4    5 1    
     8    4   70 1    
     9    5    6 1    
    10    5   65 1    
    11    5   71 1    
    12    6    7 1    
    13    6   72 1    
    14    6   73 1    
    15    7    8 1    
    16    8    9 1    
    17    8   74 1    
    18    8   75 1    
    19    9   10 ar   
    20    9   14 ar   
    21   10   11 ar   
    22   10   76 1    
    23   11   12 ar   
    24   11   48 1    
    25   12   13 ar   
    26   12   77 1    
    27   13   14 ar   
    28   13   15 1    
    29   14   78 1    
    30   15   16 1    
    31   15   79 1    
    32   15   80 1    
    33   16   17 1    
    34   17   18 1    
    35   17   81 1    
    36   17   82 1    
    37   18   19 1    
    38   18   22 1    
    39   18   83 1    
    40   19   20 am   BACKBONE|DICT|INTERRES
    41   19   21 2    
    42   20   84 1    
    43   20   85 1    
    44   22   23 am   BACKBONE|DICT|INTERRES
    45   22   86 1    
    46   23   24 2    
    47   23   25 1    
    48   25   26 1    
    49   25   27 1    
    50   25   87 1    
    51   26   88 1    
    52   26   89 1    
    53   26   90 1    
    54   27   28 am   BACKBONE|DICT|INTERRES
    55   27   91 1    
    56   28   29 2    
    57   28   30 1    
    58   30   31 1    
    59   30   32 1    
    60   30   92 1    
    61   31   93 1    
    62   31   94 1    
    63   31   95 1    
    64   32   33 am   BACKBONE|DICT|INTERRES
    65   32   96 1    
    66   33   34 2    
    67   33   35 1    
    68   35   36 1    
    69   35   37 1    
    70   35   97 1    
    71   36   98 1    
    72   36   99 1    
    73   36  100 1    
    74   37   38 am   BACKBONE|DICT|INTERRES
    75   37  101 1    
    76   38   39 2    
    77   38   40 1    
    78   40   41 1    
    79   40   42 1    
    80   40  102 1    
    81   41  103 1    
    82   41  104 1    
    83   41  105 1    
    84   42   43 am   BACKBONE|DICT|INTERRES
    85   42  106 1    
    86   43   44 2    
    87   43   45 1    
    88   45   46 1    
    89   45   49 1    
    90   45  107 1    
    91   46   47 1    
    92   46  108 1    
    93   46  109 1    
    94   47   48 1    
    95   48  110 1    
    96   48  111 1    
    97   49   50 am   BACKBONE|DICT|INTERRES
    98   49  112 1    
    99   50   51 2    
   100   50   52 1    
   101   52   53 1    
   102   52   54 1    
   103   52  113 1    
   104   53  114 1    
   105   53  115 1    
   106   53  116 1    
   107   54   55 am   BACKBONE|DICT|INTERRES
   108   54  117 1    
   109   55   56 2    
   110   55   57 1    
   111   57   58 1    
   112   57   59 1    
   113   57  118 1    
   114   58  119 1    
   115   58  120 1    
   116   58  121 1    
   117   59   60 am   BACKBONE|DICT|INTERRES
   118   59  122 1    
   119   60   61 2    
   120   60   62 1    
   121   62   63 1    
   122   62   64 1    
   123   62  123 1    
   124   63  124 1    
   125   63  125 1    
   126   63  126 1    
   127   64   65 am   BACKBONE|DICT|INTERRES
   128   64  127 1    
   129   65   66 2    
@<TRIPOS>SUBSTRUCTURE
     1 UNK         1 GROUP             0       ****    0 ROOT    
