@<TRIPOS>MOLECULE
3R134
127   129    1
SMALL
USER_CHARGES


@<TRIPOS>ATOM
      1 CA         33.8820  -41.3678  -50.5685 C.3       0 UNK        -0.1968 
      2 C          34.7083  -42.6284  -50.7786 C.2       0 UNK         0.4852 
      3 O          35.7790  -42.7643  -50.1840 O.2       0 UNK        -0.5359 
      4 N          34.2225  -43.5464  -51.6232 N.am      1 UNK        -0.4300 
      5 CA         34.8494  -44.8401  -51.9004 C.3       1 UNK         0.0863 
      6 C6         34.2993  -45.4822  -53.1978 C.3       11 UNK        -0.0953 
      7 S7         34.8613  -44.6231  -54.7003 S.3       11 UNK        -0.2369 
      8 C8         33.4182  -43.5990  -55.1260 C.3       11 UNK         0.0226 
      9 C9         32.2408  -44.4060  -55.6603 C.ar      11 UNK        -0.0699 
     10 C10        32.3404  -45.0690  -56.8879 C.ar      11 UNK        -0.0804 
     11 C11        31.2317  -45.7206  -57.4371 C.ar      11 UNK        -0.0871 
     12 C12        30.0163  -45.7038  -56.7484 C.ar      11 UNK        -0.1008 
     13 C13        29.9078  -45.0669  -55.5079 C.ar      11 UNK        -0.0735 
     14 C14        31.0260  -44.4244  -54.9671 C.ar      11 UNK        -0.0945 
     15 C15        28.5667  -45.0022  -54.7886 C.3       11 UNK         0.0169 
     16 S16        27.7527  -46.6280  -54.6703 S.3       11 UNK        -0.2669 
     17 C17        26.0040  -46.1348  -54.4992 C.3       11 UNK        -0.0850 
     18 CA         25.2218  -46.3320  -55.8285 C.3       10 UNK         0.0855 
     19 C          23.6729  -46.2493  -55.6618 C.2       10 UNK         0.5543 
     20 N          22.9199  -45.8422  -56.6782 N.am      10 UNK        -0.7343 
     21 O          23.1383  -46.5924  -54.6104 O.2       10 UNK        -0.5027 
     22 N          25.7599  -45.5313  -56.9416 N.am      10 UNK        -0.4495 
     23 C          25.6885  -44.1983  -57.0744 C.2       10 UNK         0.4903 
     24 O          25.2644  -43.4401  -56.2022 O.2       10 UNK        -0.4860 
     25 CA         26.1421  -43.6031  -58.4229 C.3       9 UNK         0.0227 
     26 CB         27.5730  -43.0520  -58.3113 C.3       9 UNK        -0.1964 
     27 N          26.0757  -44.5524  -59.5398 N.am      9 UNK        -0.4231 
     28 C          24.9664  -45.1679  -59.9746 C.2       9 UNK         0.5014 
     29 O          23.8361  -44.9358  -59.5411 O.2       9 UNK        -0.5270 
     30 CA         25.1523  -46.2964  -61.0058 C.3       8 UNK         0.0284 
     31 CB         26.4438  -46.1734  -61.8480 C.3       8 UNK        -0.1977 
     32 N          25.0719  -47.6130  -60.3572 N.am      8 UNK        -0.4342 
     33 C          25.8487  -48.0640  -59.3617 C.2       8 UNK         0.5039 
     34 O          26.7931  -47.4291  -58.8761 O.2       8 UNK        -0.5547 
     35 CA         25.5110  -49.4481  -58.7959 C.3       7 UNK         0.0281 
     36 CB         25.9327  -50.5678  -59.7650 C.3       7 UNK        -0.1963 
     37 N          26.2379  -49.5794  -57.5412 N.am      7 UNK        -0.4444 
     38 C          25.9794  -50.4076  -56.5260 C.2       7 UNK         0.5104 
     39 O          25.0403  -51.2049  -56.5159 O.2       7 UNK        -0.5100 
     40 CA         26.9360  -50.3105  -55.3165 C.3       6 UNK         0.0396 
     41 CB         26.9886  -51.6116  -54.4892 C.3       6 UNK        -0.1801 
     42 N          28.2900  -49.8628  -55.6818 N.am      6 UNK        -0.4747 
     43 C          29.1467  -50.4789  -56.5145 C.2       6 UNK         0.5012 
     44 O          28.9241  -51.5640  -57.0528 O.2       6 UNK        -0.5003 
     45 CA         30.4660  -49.7471  -56.8324 C.3       5 UNK         0.0782 
     46 C46        30.3223  -48.9626  -58.1605 C.3       11 UNK        -0.0868 
     47 S47        31.8658  -48.1305  -58.6682 S.3       11 UNK        -0.2515 
     48 C48        31.3352  -46.3933  -58.7984 C.3       11 UNK         0.0199 
     49 N          30.9553  -48.9071  -55.7311 N.am      5 UNK        -0.4607 
     50 C          31.3897  -49.3815  -54.5569 C.2       4 UNK         0.5031 
     51 O          31.3024  -50.5647  -54.2191 O.2       4 UNK        -0.5119 
     52 CA         32.0271  -48.3573  -53.6021 C.3       4 UNK         0.0263 
     53 CB         30.9538  -47.6333  -52.7762 C.3       4 UNK        -0.1967 
     54 N          32.9804  -48.9800  -52.6807 N.am      4 UNK        -0.4237 
     55 C          34.1472  -49.5332  -53.0360 C.2       3 UNK         0.4908 
     56 O          34.5991  -49.5132  -54.1824 O.2       3 UNK        -0.5102 
     57 CA         34.9690  -50.1412  -51.8915 C.3       3 UNK         0.0241 
     58 CB         36.1585  -50.9850  -52.3887 C.3       3 UNK        -0.1971 
     59 N          35.4693  -49.0366  -51.0797 N.am      3 UNK        -0.4139 
     60 C          35.1642  -48.8000  -49.7980 C.2       2 UNK         0.5016 
     61 O          34.4900  -49.5541  -49.0960 O.2       2 UNK        -0.5319 
     62 CA         35.6769  -47.4712  -49.2138 C.3       2 UNK         0.0286 
     63 CB         37.0733  -47.6527  -48.5971 C.3       2 UNK        -0.1963 
     64 N          35.7209  -46.4056  -50.2228 N.am      2 UNK        -0.4790 
     65 C          34.6329  -45.7930  -50.7109 C.2       1 UNK         0.5024 
     66 O          33.4902  -45.9888  -50.2912 O.2       1 UNK        -0.4888 
     67 H67        34.4637  -40.4882  -50.8429 H         1 UNK         0.0892 
     68 H68        32.9713  -41.3715  -51.1671 H         1 UNK         0.0892 
     69 H69        33.5985  -41.2758  -49.5204 H         1 UNK         0.0892 
     70 H70        33.3193  -43.3997  -52.0474 H         1 UNK         0.3107 
     71 H71        35.9231  -44.6806  -52.0251 H         1 UNK         0.0773 
     72 H72        34.6459  -46.5129  -53.2908 H         1 UNK         0.0680 
     73 H73        33.2096  -45.5287  -53.1789 H         1 UNK         0.0680 
     74 H74        33.1268  -43.0066  -54.2582 H         1 UNK         0.0650 
     75 H75        33.7211  -42.8816  -55.8898 H         1 UNK         0.0650 
     76 H76        33.2774  -45.0533  -57.4281 H         1 UNK         0.1397 
     77 H77        29.1430  -46.1705  -57.1837 H         1 UNK         0.1363 
     78 H78        30.9385  -43.9023  -54.0243 H         1 UNK         0.1355 
     79 H79        27.9307  -44.3020  -55.3280 H         1 UNK         0.0707 
     80 H80        28.6824  -44.6007  -53.7808 H         1 UNK         0.0707 
     81 H81        25.9265  -45.1050  -54.1474 H         1 UNK         0.1034 
     82 H82        25.5773  -46.7531  -53.7077 H         1 UNK         0.1034 
     83 H83        25.3832  -47.3655  -56.1302 H         1 UNK         0.0482 
     84 H84        23.3369  -45.5519  -57.5542 H         1 UNK         0.3460 
     85 H85        21.9197  -45.8035  -56.5630 H         1 UNK         0.3460 
     86 H86        26.1534  -46.0706  -57.7084 H         1 UNK         0.2989 
     87 H87        25.4711  -42.7737  -58.6549 H         1 UNK         0.0559 
     88 H88        27.8719  -42.5330  -59.2221 H         1 UNK         0.0848 
     89 H89        28.2979  -43.8441  -58.1227 H         1 UNK         0.0848 
     90 H90        27.6542  -42.3366  -57.4917 H         1 UNK         0.0848 
     91 H91        26.9572  -44.8629  -59.9225 H         1 UNK         0.3144 
     92 H92        24.3055  -46.2288  -61.6907 H         1 UNK         0.0727 
     93 H93        26.4585  -46.9187  -62.6433 H         1 UNK         0.0790 
     94 H94        27.3492  -46.3140  -61.2568 H         1 UNK         0.0790 
     95 H95        26.5085  -45.1955  -62.3273 H         1 UNK         0.0790 
     96 H96        24.3052  -48.1967  -60.6633 H         1 UNK         0.3215 
     97 H97        24.4379  -49.4991  -58.5999 H         1 UNK         0.0863 
     98 H98        25.7088  -51.5529  -59.3552 H         1 UNK         0.0808 
     99 H99        27.0021  -50.5317  -59.9776 H         1 UNK         0.0808 
    100 H100       25.4060  -50.4881  -60.7166 H         1 UNK         0.0808 
    101 H101       26.9940  -48.9104  -57.4536 H         1 UNK         0.3118 
    102 H102       26.5251  -49.5316  -54.6728 H         1 UNK         0.0546 
    103 H103       27.3172  -52.4609  -55.0887 H         1 UNK         0.0828 
    104 H104       26.0054  -51.8599  -54.0880 H         1 UNK         0.0828 
    105 H105       27.6681  -51.5156  -53.6424 H         1 UNK         0.0828 
    106 H106       28.5703  -48.9688  -55.2984 H         1 UNK         0.3005 
    107 H107       31.2157  -50.5265  -56.9892 H         1 UNK         0.1257 
    108 H108       30.0425  -49.6409  -58.9692 H         1 UNK         0.0775 
    109 H109       29.5106  -48.2373  -58.0949 H         1 UNK         0.0775 
    110 H110       32.0555  -45.8562  -59.4175 H         1 UNK         0.0840 
    111 H111       30.3839  -46.3345  -59.3302 H         1 UNK         0.0840 
    112 H112       31.0609  -47.9233  -55.9395 H         1 UNK         0.2987 
    113 H113       32.5663  -47.6232  -54.2041 H         1 UNK         0.0785 
    114 H114       30.3359  -48.3325  -52.2112 H         1 UNK         0.0798 
    115 H115       31.3969  -46.9294  -52.0714 H         1 UNK         0.0798 
    116 H116       30.2922  -47.0603  -53.4220 H         1 UNK         0.0798 
    117 H117       32.6930  -49.0455  -51.7148 H         1 UNK         0.3079 
    118 H118       34.3074  -50.7892  -51.3123 H         1 UNK         0.0794 
    119 H119       35.8167  -51.8044  -53.0224 H         1 UNK         0.0786 
    120 H120       36.7040  -51.4259  -51.5542 H         1 UNK         0.0786 
    121 H121       36.8640  -50.3918  -52.9719 H         1 UNK         0.0786 
    122 H122       36.0081  -48.3386  -51.5720 H         1 UNK         0.3032 
    123 H123       34.9876  -47.1721  -48.4202 H         1 UNK         0.1094 
    124 H124       37.0609  -48.4264  -47.8279 H         1 UNK         0.0794 
    125 H125       37.8128  -47.9471  -49.3429 H         1 UNK         0.0794 
    126 H126       37.4200  -46.7339  -48.1237 H         1 UNK         0.0794 
    127 H127       36.6297  -46.1629  -50.5929 H         1 UNK         0.3016 
@<TRIPOS>BOND
     1    1    2 1    
     2    1   67 1    
     3    1   68 1    
     4    1   69 1    
     5    2    3 2    
     6    2    4 am   BACKBONE|DICT|INTERRES
     7    4    5 1    
     8    4   70 1    
     9    5    6 1    
    10    5   65 1    
    11    5   71 1    
    12    6    7 1    
    13    6   72 1    
    14    6   73 1    
    15    7    8 1    
    16    8    9 1    
    17    8   74 1    
    18    8   75 1    
    19    9   10 ar   
    20    9   14 ar   
    21   10   11 ar   
    22   10   76 1    
    23   11   12 ar   
    24   11   48 1    
    25   12   13 ar   
    26   12   77 1    
    27   13   14 ar   
    28   13   15 1    
    29   14   78 1    
    30   15   16 1    
    31   15   79 1    
    32   15   80 1    
    33   16   17 1    
    34   17   18 1    
    35   17   81 1    
    36   17   82 1    
    37   18   19 1    
    38   18   22 1    
    39   18   83 1    
    40   19   20 am   BACKBONE|DICT|INTERRES
    41   19   21 2    
    42   20   84 1    
    43   20   85 1    
    44   22   23 am   BACKBONE|DICT|INTERRES
    45   22   86 1    
    46   23   24 2    
    47   23   25 1    
    48   25   26 1    
    49   25   27 1    
    50   25   87 1    
    51   26   88 1    
    52   26   89 1    
    53   26   90 1    
    54   27   28 am   BACKBONE|DICT|INTERRES
    55   27   91 1    
    56   28   29 2    
    57   28   30 1    
    58   30   31 1    
    59   30   32 1    
    60   30   92 1    
    61   31   93 1    
    62   31   94 1    
    63   31   95 1    
    64   32   33 am   BACKBONE|DICT|INTERRES
    65   32   96 1    
    66   33   34 2    
    67   33   35 1    
    68   35   36 1    
    69   35   37 1    
    70   35   97 1    
    71   36   98 1    
    72   36   99 1    
    73   36  100 1    
    74   37   38 am   BACKBONE|DICT|INTERRES
    75   37  101 1    
    76   38   39 2    
    77   38   40 1    
    78   40   41 1    
    79   40   42 1    
    80   40  102 1    
    81   41  103 1    
    82   41  104 1    
    83   41  105 1    
    84   42   43 am   BACKBONE|DICT|INTERRES
    85   42  106 1    
    86   43   44 2    
    87   43   45 1    
    88   45   46 1    
    89   45   49 1    
    90   45  107 1    
    91   46   47 1    
    92   46  108 1    
    93   46  109 1    
    94   47   48 1    
    95   48  110 1    
    96   48  111 1    
    97   49   50 am   BACKBONE|DICT|INTERRES
    98   49  112 1    
    99   50   51 2    
   100   50   52 1    
   101   52   53 1    
   102   52   54 1    
   103   52  113 1    
   104   53  114 1    
   105   53  115 1    
   106   53  116 1    
   107   54   55 am   BACKBONE|DICT|INTERRES
   108   54  117 1    
   109   55   56 2    
   110   55   57 1    
   111   57   58 1    
   112   57   59 1    
   113   57  118 1    
   114   58  119 1    
   115   58  120 1    
   116   58  121 1    
   117   59   60 am   BACKBONE|DICT|INTERRES
   118   59  122 1    
   119   60   61 2    
   120   60   62 1    
   121   62   63 1    
   122   62   64 1    
   123   62  123 1    
   124   63  124 1    
   125   63  125 1    
   126   63  126 1    
   127   64   65 am   BACKBONE|DICT|INTERRES
   128   64  127 1    
   129   65   66 2    
@<TRIPOS>SUBSTRUCTURE
     1 UNK         1 GROUP             0       ****    0 ROOT    
