@<TRIPOS>MOLECULE
3R134
127   129    1
SMALL
USER_CHARGES


@<TRIPOS>ATOM
      1 CA         36.8099  -45.2508  -52.1911 C.3       0 UNK        -0.1968 
      2 C          35.3616  -45.6964  -52.3227 C.2       0 UNK         0.4852 
      3 O          35.0797  -46.6619  -53.0335 O.2       0 UNK        -0.5359 
      4 N          34.4377  -45.0149  -51.6309 N.am      1 UNK        -0.4300 
      5 CA         32.9910  -45.2714  -51.6413 C.3       1 UNK         0.0863 
      6 C6         32.1982  -43.9779  -51.3129 C.3       11 UNK        -0.0953 
      7 S7         30.5538  -43.9267  -52.1082 S.3       11 UNK        -0.2369 
      8 C8         30.6966  -42.4885  -53.2228 C.3       11 UNK         0.0226 
      9 C9         30.9834  -42.8693  -54.6723 C.ar      11 UNK        -0.0699 
     10 C10        32.0898  -43.6540  -55.0160 C.ar      11 UNK        -0.0804 
     11 C11        32.3514  -43.9732  -56.3525 C.ar      11 UNK        -0.0871 
     12 C12        31.5038  -43.4851  -57.3529 C.ar      11 UNK        -0.1008 
     13 C13        30.4021  -42.6893  -57.0274 C.ar      11 UNK        -0.0735 
     14 C14        30.1525  -42.3842  -55.6862 C.ar      11 UNK        -0.0945 
     15 C15        29.5145  -42.1201  -58.1285 C.3       11 UNK         0.0169 
     16 S16        28.0814  -43.1847  -58.5007 S.3       11 UNK        -0.2669 
     17 C17        27.0341  -42.9175  -57.0302 C.3       11 UNK        -0.0850 
     18 CA         27.0179  -44.1714  -56.1027 C.3       10 UNK         0.0855 
     19 C          26.7725  -43.8467  -54.5958 C.2       10 UNK         0.5543 
     20 N          26.4258  -44.8303  -53.7742 N.am      10 UNK        -0.7343 
     21 O          26.9076  -42.7071  -54.1567 O.2       10 UNK        -0.5027 
     22 N          26.1501  -45.2451  -56.6260 N.am      10 UNK        -0.4495 
     23 C          24.8121  -45.1830  -56.7098 C.2       10 UNK         0.4903 
     24 O          24.1625  -44.1866  -56.3876 O.2       10 UNK        -0.4860 
     25 CA         24.0302  -46.4212  -57.1939 C.3       9 UNK         0.0227 
     26 CB         23.0414  -46.0632  -58.3241 C.3       9 UNK        -0.1964 
     27 N          24.8323  -47.5960  -57.5526 N.am      9 UNK        -0.4231 
     28 C          25.6704  -47.7651  -58.5832 C.2       9 UNK         0.5014 
     29 O          25.9463  -46.8797  -59.3936 O.2       9 UNK        -0.5270 
     30 CA         26.2899  -49.1732  -58.7306 C.3       8 UNK         0.0284 
     31 CB         27.3364  -49.2395  -59.8587 C.3       8 UNK        -0.1977 
     32 N          26.8970  -49.6654  -57.4889 N.am      8 UNK        -0.4342 
     33 C          26.2404  -50.0951  -56.4021 C.2       8 UNK         0.5039 
     34 O          25.0126  -50.1744  -56.3386 O.2       8 UNK        -0.5547 
     35 CA         27.0826  -50.4181  -55.1563 C.3       7 UNK         0.0281 
     36 CB         27.6763  -51.8325  -55.2436 C.3       7 UNK        -0.1963 
     37 N          28.1494  -49.4385  -54.9342 N.am      7 UNK        -0.4444 
     38 C          27.9468  -48.1396  -54.6624 C.2       7 UNK         0.5104 
     39 O          26.8377  -47.6262  -54.5097 O.2       7 UNK        -0.5100 
     40 CA         29.1997  -47.2575  -54.5817 C.3       6 UNK         0.0396 
     41 CB         29.8509  -47.3615  -53.1957 C.3       6 UNK        -0.1801 
     42 N          30.1687  -47.6124  -55.6176 N.am      6 UNK        -0.4747 
     43 C          30.0202  -47.3375  -56.9226 C.2       6 UNK         0.5012 
     44 O          29.0604  -46.7225  -57.3855 O.2       6 UNK        -0.5003 
     45 CA         31.0975  -47.8958  -57.8792 C.3       5 UNK         0.0782 
     46 C46        32.2729  -46.9112  -58.0930 C.3       11 UNK        -0.0868 
     47 S47        33.2788  -46.5950  -56.5970 S.3       11 UNK        -0.2515 
     48 C48        33.5786  -44.8013  -56.7145 C.3       11 UNK         0.0199 
     49 N          31.5667  -49.2286  -57.4868 N.am      5 UNK        -0.4607 
     50 C          30.8037  -50.3295  -57.4862 C.2       4 UNK         0.5031 
     51 O          29.6319  -50.3417  -57.8562 O.2       4 UNK        -0.5119 
     52 CA         31.4281  -51.6284  -56.9455 C.3       4 UNK         0.0263 
     53 CB         32.0547  -52.4353  -58.0934 C.3       4 UNK        -0.1967 
     54 N          32.4228  -51.4346  -55.8844 N.am      4 UNK        -0.4237 
     55 C          32.2162  -50.7759  -54.7358 C.2       3 UNK         0.4908 
     56 O          31.1528  -50.2173  -54.4474 O.2       3 UNK        -0.5102 
     57 CA         33.4053  -50.7085  -53.7685 C.3       3 UNK         0.0241 
     58 CB         34.6469  -50.0737  -54.4293 C.3       3 UNK        -0.1971 
     59 N          33.0213  -49.9141  -52.6075 N.am      3 UNK        -0.4139 
     60 C          33.5491  -49.9950  -51.3823 C.2       2 UNK         0.5016 
     61 O          34.4062  -50.8178  -51.0544 O.2       2 UNK        -0.5319 
     62 CA         33.0784  -48.9211  -50.3907 C.3       2 UNK         0.0286 
     63 CB         33.8199  -48.9668  -49.0391 C.3       2 UNK        -0.1963 
     64 N          33.2673  -47.6204  -51.0277 N.am      2 UNK        -0.4790 
     65 C          32.6116  -46.4883  -50.7611 C.2       1 UNK         0.5024 
     66 O          31.7611  -46.3918  -49.8753 O.2       1 UNK        -0.4888 
     67 H67        36.9138  -44.3870  -51.5348 H         1 UNK         0.0892 
     68 H68        37.2088  -44.9837  -53.1693 H         1 UNK         0.0892 
     69 H69        37.4154  -46.0608  -51.7854 H         1 UNK         0.0892 
     70 H70        34.7379  -44.2621  -51.0276 H         1 UNK         0.3107 
     71 H71        32.7357  -45.5641  -52.6608 H         1 UNK         0.0773 
     72 H72        32.0792  -43.8392  -50.2368 H         1 UNK         0.0680 
     73 H73        32.7639  -43.1075  -51.6466 H         1 UNK         0.0680 
     74 H74        29.7526  -41.9446  -53.1613 H         1 UNK         0.0650 
     75 H75        31.4591  -41.7928  -52.8722 H         1 UNK         0.0650 
     76 H76        32.7591  -44.0053  -54.2460 H         1 UNK         0.1397 
     77 H77        31.7104  -43.7048  -58.3910 H         1 UNK         0.1363 
     78 H78        29.3166  -41.7507  -55.4270 H         1 UNK         0.1355 
     79 H79        30.0977  -41.9969  -59.0423 H         1 UNK         0.0707 
     80 H80        29.1709  -41.1202  -57.8592 H         1 UNK         0.0707 
     81 H81        26.0286  -42.6575  -57.3612 H         1 UNK         0.1034 
     82 H82        27.3880  -42.0273  -56.5126 H         1 UNK         0.1034 
     83 H83        28.0278  -44.5799  -56.1075 H         1 UNK         0.0482 
     84 H84        26.3667  -45.7869  -54.1095 H         1 UNK         0.3460 
     85 H85        26.2681  -44.6263  -52.8009 H         1 UNK         0.3460 
     86 H86        26.6239  -46.0888  -56.9179 H         1 UNK         0.2989 
     87 H87        23.4361  -46.7393  -56.3361 H         1 UNK         0.0559 
     88 H88        22.4542  -46.9294  -58.6289 H         1 UNK         0.0848 
     89 H89        23.5553  -45.6779  -59.2052 H         1 UNK         0.0848 
     90 H90        22.3369  -45.2956  -58.0016 H         1 UNK         0.0848 
     91 H91        24.7107  -48.4072  -56.9486 H         1 UNK         0.3144 
     92 H92        25.4748  -49.8484  -58.9987 H         1 UNK         0.0727 
     93 H93        27.7292  -50.2495  -59.9777 H         1 UNK         0.0790 
     94 H94        28.1777  -48.5738  -59.6619 H         1 UNK         0.0790 
     95 H95        26.9030  -48.9469  -60.8159 H         1 UNK         0.0790 
     96 H96        27.9146  -49.6899  -57.4735 H         1 UNK         0.3215 
     97 H97        26.4197  -50.3809  -54.2891 H         1 UNK         0.0863 
     98 H98        28.2858  -52.0651  -54.3701 H         1 UNK         0.0808 
     99 H99        28.2960  -51.9580  -56.1307 H         1 UNK         0.0808 
    100 H100       26.8843  -52.5806  -55.2960 H         1 UNK         0.0808 
    101 H101       29.1065  -49.7649  -55.0082 H         1 UNK         0.3118 
    102 H102       28.9062  -46.2183  -54.7334 H         1 UNK         0.0546 
    103 H103       29.1946  -46.9464  -52.4297 H         1 UNK         0.0828 
    104 H104       30.7828  -46.8012  -53.1617 H         1 UNK         0.0828 
    105 H105       30.0648  -48.3922  -52.9139 H         1 UNK         0.0828 
    106 H106       30.9529  -48.1846  -55.3334 H         1 UNK         0.3005 
    107 H107       30.6026  -48.0133  -58.8463 H         1 UNK         0.1257 
    108 H108       31.8923  -45.9737  -58.4958 H         1 UNK         0.0775 
    109 H109       32.9397  -47.3024  -58.8628 H         1 UNK         0.0775 
    110 H110       34.3995  -44.5448  -56.0429 H         1 UNK         0.0840 
    111 H111       33.9263  -44.5548  -57.7189 H         1 UNK         0.0840 
    112 H112       32.5187  -49.2903  -57.1576 H         1 UNK         0.2987 
    113 H113       30.6186  -52.2222  -56.5179 H         1 UNK         0.0785 
    114 H114       32.9018  -51.9129  -58.5397 H         1 UNK         0.0798 
    115 H115       31.3273  -52.6141  -58.8869 H         1 UNK         0.0798 
    116 H116       32.4020  -53.4105  -57.7514 H         1 UNK         0.0798 
    117 H117       33.3259  -51.8600  -56.0378 H         1 UNK         0.3079 
    118 H118       33.6350  -51.7276  -53.4504 H         1 UNK         0.0794 
    119 H119       34.4369  -49.0665  -54.7932 H         1 UNK         0.0786 
    120 H120       35.0033  -50.6628  -55.2745 H         1 UNK         0.0786 
    121 H121       35.4757  -49.9999  -53.7248 H         1 UNK         0.0786 
    122 H122       32.2658  -49.2652  -52.7827 H         1 UNK         0.3032 
    123 H123       32.0132  -49.0865  -50.2132 H         1 UNK         0.1094 
    124 H124       34.8902  -48.7973  -49.1627 H         1 UNK         0.0794 
    125 H125       33.4390  -48.2130  -48.3499 H         1 UNK         0.0794 
    126 H126       33.6940  -49.9371  -48.5571 H         1 UNK         0.0794 
    127 H127       33.9548  -47.5891  -51.7796 H         1 UNK         0.3016 
@<TRIPOS>BOND
     1    1    2 1    
     2    1   67 1    
     3    1   68 1    
     4    1   69 1    
     5    2    3 2    
     6    2    4 am   BACKBONE|DICT|INTERRES
     7    4    5 1    
     8    4   70 1    
     9    5    6 1    
    10    5   65 1    
    11    5   71 1    
    12    6    7 1    
    13    6   72 1    
    14    6   73 1    
    15    7    8 1    
    16    8    9 1    
    17    8   74 1    
    18    8   75 1    
    19    9   10 ar   
    20    9   14 ar   
    21   10   11 ar   
    22   10   76 1    
    23   11   12 ar   
    24   11   48 1    
    25   12   13 ar   
    26   12   77 1    
    27   13   14 ar   
    28   13   15 1    
    29   14   78 1    
    30   15   16 1    
    31   15   79 1    
    32   15   80 1    
    33   16   17 1    
    34   17   18 1    
    35   17   81 1    
    36   17   82 1    
    37   18   19 1    
    38   18   22 1    
    39   18   83 1    
    40   19   20 am   BACKBONE|DICT|INTERRES
    41   19   21 2    
    42   20   84 1    
    43   20   85 1    
    44   22   23 am   BACKBONE|DICT|INTERRES
    45   22   86 1    
    46   23   24 2    
    47   23   25 1    
    48   25   26 1    
    49   25   27 1    
    50   25   87 1    
    51   26   88 1    
    52   26   89 1    
    53   26   90 1    
    54   27   28 am   BACKBONE|DICT|INTERRES
    55   27   91 1    
    56   28   29 2    
    57   28   30 1    
    58   30   31 1    
    59   30   32 1    
    60   30   92 1    
    61   31   93 1    
    62   31   94 1    
    63   31   95 1    
    64   32   33 am   BACKBONE|DICT|INTERRES
    65   32   96 1    
    66   33   34 2    
    67   33   35 1    
    68   35   36 1    
    69   35   37 1    
    70   35   97 1    
    71   36   98 1    
    72   36   99 1    
    73   36  100 1    
    74   37   38 am   BACKBONE|DICT|INTERRES
    75   37  101 1    
    76   38   39 2    
    77   38   40 1    
    78   40   41 1    
    79   40   42 1    
    80   40  102 1    
    81   41  103 1    
    82   41  104 1    
    83   41  105 1    
    84   42   43 am   BACKBONE|DICT|INTERRES
    85   42  106 1    
    86   43   44 2    
    87   43   45 1    
    88   45   46 1    
    89   45   49 1    
    90   45  107 1    
    91   46   47 1    
    92   46  108 1    
    93   46  109 1    
    94   47   48 1    
    95   48  110 1    
    96   48  111 1    
    97   49   50 am   BACKBONE|DICT|INTERRES
    98   49  112 1    
    99   50   51 2    
   100   50   52 1    
   101   52   53 1    
   102   52   54 1    
   103   52  113 1    
   104   53  114 1    
   105   53  115 1    
   106   53  116 1    
   107   54   55 am   BACKBONE|DICT|INTERRES
   108   54  117 1    
   109   55   56 2    
   110   55   57 1    
   111   57   58 1    
   112   57   59 1    
   113   57  118 1    
   114   58  119 1    
   115   58  120 1    
   116   58  121 1    
   117   59   60 am   BACKBONE|DICT|INTERRES
   118   59  122 1    
   119   60   61 2    
   120   60   62 1    
   121   62   63 1    
   122   62   64 1    
   123   62  123 1    
   124   63  124 1    
   125   63  125 1    
   126   63  126 1    
   127   64   65 am   BACKBONE|DICT|INTERRES
   128   64  127 1    
   129   65   66 2    
@<TRIPOS>SUBSTRUCTURE
     1 UNK         1 GROUP             0       ****    0 ROOT    
