@<TRIPOS>MOLECULE
3R134
127   129    1
SMALL
USER_CHARGES


@<TRIPOS>ATOM
      1 CA         32.0403  -43.2497  -57.8035 C.3       0 UNK        -0.1968 
      2 C          33.1506  -44.0119  -57.0946 C.2       0 UNK         0.4852 
      3 O          34.2889  -43.9985  -57.5645 O.2       0 UNK        -0.5359 
      4 N          32.8207  -44.6680  -55.9715 N.am      1 UNK        -0.4300 
      5 CA         33.7026  -45.5088  -55.1525 C.3       1 UNK         0.0863 
      6 C6         34.8595  -44.7103  -54.4767 C.3       11 UNK        -0.0953 
      7 S7         34.3871  -43.9899  -52.8725 S.3       11 UNK        -0.2369 
      8 C8         33.3239  -42.5830  -53.3354 C.3       11 UNK         0.0226 
      9 C9         31.8589  -42.8392  -52.9962 C.ar      11 UNK        -0.0699 
     10 C10        31.4953  -43.1861  -51.6914 C.ar      11 UNK        -0.0804 
     11 C11        30.1570  -43.3968  -51.3535 C.ar      11 UNK        -0.0871 
     12 C12        29.1696  -43.2441  -52.3301 C.ar      11 UNK        -0.1008 
     13 C13        29.5141  -42.8880  -53.6387 C.ar      11 UNK        -0.0735 
     14 C14        30.8608  -42.6863  -53.9644 C.ar      11 UNK        -0.0945 
     15 C15        28.4296  -42.6625  -54.6865 C.3       11 UNK         0.0169 
     16 S16        27.2957  -44.0781  -54.8749 S.3       11 UNK        -0.2669 
     17 C17        28.3830  -45.3320  -55.6331 C.3       11 UNK        -0.0850 
     18 CA         28.4808  -45.1891  -57.1743 C.3       10 UNK         0.0855 
     19 C          29.5358  -46.1634  -57.7706 C.2       10 UNK         0.5543 
     20 N          29.2578  -46.8998  -58.8397 N.am      10 UNK        -0.7343 
     21 O          30.6423  -46.2492  -57.2481 O.2       10 UNK        -0.5027 
     22 N          27.1638  -45.2787  -57.8207 N.am      10 UNK        -0.4495 
     23 C          26.8036  -44.5974  -58.9164 C.2       10 UNK         0.4903 
     24 O          27.5093  -43.7384  -59.4481 O.2       10 UNK        -0.4860 
     25 CA         25.4274  -44.9417  -59.5279 C.3       9 UNK         0.0227 
     26 CB         25.3279  -44.5600  -61.0206 C.3       9 UNK        -0.1964 
     27 N          25.0320  -46.3428  -59.3261 N.am      9 UNK        -0.4231 
     28 C          25.7129  -47.4333  -59.7074 C.2       9 UNK         0.5014 
     29 O          26.7722  -47.4101  -60.3381 O.2       9 UNK        -0.5270 
     30 CA         25.1387  -48.7832  -59.2515 C.3       8 UNK         0.0284 
     31 CB         24.8782  -49.7068  -60.4535 C.3       8 UNK        -0.1977 
     32 N          26.0308  -49.4561  -58.3032 N.am      8 UNK        -0.4342 
     33 C          26.4057  -48.9700  -57.1123 C.2       8 UNK         0.5039 
     34 O          26.0631  -47.8671  -56.6742 O.2       8 UNK        -0.5547 
     35 CA         27.3096  -49.8711  -56.2652 C.3       7 UNK         0.0281 
     36 CB         28.7983  -49.6267  -56.5634 C.3       7 UNK        -0.1963 
     37 N          27.0431  -49.5984  -54.8583 N.am      7 UNK        -0.4444 
     38 C          27.0947  -50.4938  -53.8698 C.2       7 UNK         0.5104 
     39 O          27.4257  -51.6706  -54.0265 O.2       7 UNK        -0.5100 
     40 CA         26.7408  -49.9702  -52.4665 C.3       6 UNK         0.0396 
     41 CB         26.5265  -51.1059  -51.4487 C.3       6 UNK        -0.1801 
     42 N          27.7944  -49.0864  -51.9714 N.am      6 UNK        -0.4747 
     43 C          27.9475  -47.7938  -52.2950 C.2       6 UNK         0.5012 
     44 O          27.1613  -47.1794  -53.0141 O.2       6 UNK        -0.5003 
     45 CA         29.1807  -47.0729  -51.7088 C.3       5 UNK         0.0782 
     46 C46        28.7782  -46.3649  -50.3904 C.3       11 UNK        -0.0868 
     47 S47        30.1621  -45.5090  -49.5665 S.3       11 UNK        -0.2515 
     48 C48        29.7899  -43.7641  -49.9246 C.3       11 UNK         0.0199 
     49 N          30.3043  -48.0019  -51.5233 N.am      5 UNK        -0.4607 
     50 C          31.0062  -48.5594  -52.5181 C.2       4 UNK         0.5031 
     51 O          30.8703  -48.2674  -53.7082 O.2       4 UNK        -0.5119 
     52 CA         31.9896  -49.6598  -52.1021 C.3       4 UNK         0.0263 
     53 CB         31.2345  -50.9122  -51.6106 C.3       4 UNK        -0.1967 
     54 N          32.8406  -50.0142  -53.2346 N.am      4 UNK        -0.4237 
     55 C          34.0421  -50.5958  -53.1526 C.2       3 UNK         0.4908 
     56 O          34.5707  -50.9026  -52.0830 O.2       3 UNK        -0.5102 
     57 CA         34.8135  -50.8764  -54.4571 C.3       3 UNK         0.0241 
     58 CB         34.6612  -52.3489  -54.8889 C.3       3 UNK        -0.1971 
     59 N          34.5258  -49.9503  -55.5620 N.am      3 UNK        -0.4139 
     60 C          33.4175  -49.8294  -56.3047 C.2       2 UNK         0.5016 
     61 O          32.4093  -50.5205  -56.1551 O.2       2 UNK        -0.5319 
     62 CA         33.4270  -48.6846  -57.3352 C.3       2 UNK         0.0286 
     63 CB         32.3425  -48.8590  -58.4125 C.3       2 UNK        -0.1963 
     64 N          33.2368  -47.3944  -56.6674 N.am      2 UNK        -0.4790 
     65 C          34.1635  -46.7669  -55.9267 C.2       1 UNK         0.5024 
     66 O          35.3232  -47.1758  -55.8293 O.2       1 UNK        -0.4888 
     67 H67        31.1132  -43.2525  -57.2326 H         1 UNK         0.0892 
     68 H68        32.3363  -42.2132  -57.9625 H         1 UNK         0.0892 
     69 H69        31.8397  -43.7017  -58.7747 H         1 UNK         0.0892 
     70 H70        31.8507  -44.6865  -55.6922 H         1 UNK         0.3107 
     71 H71        33.0696  -45.9116  -54.3596 H         1 UNK         0.0773 
     72 H72        35.7124  -45.3496  -54.2462 H         1 UNK         0.0680 
     73 H73        35.2558  -43.9291  -55.1257 H         1 UNK         0.0680 
     74 H74        33.4518  -42.3478  -54.3927 H         1 UNK         0.0650 
     75 H75        33.6571  -41.7023  -52.7852 H         1 UNK         0.0650 
     76 H76        32.2593  -43.2947  -50.9334 H         1 UNK         0.1397 
     77 H77        28.1294  -43.3920  -52.0729 H         1 UNK         0.1363 
     78 H78        31.1313  -42.3826  -54.9654 H         1 UNK         0.1355 
     79 H79        28.8653  -42.4249  -55.6579 H         1 UNK         0.0707 
     80 H80        27.8451  -41.7892  -54.3943 H         1 UNK         0.0707 
     81 H81        27.9946  -46.3190  -55.3778 H         1 UNK         0.1034 
     82 H82        29.3662  -45.2715  -55.1637 H         1 UNK         0.1034 
     83 H83        28.8837  -44.1945  -57.3684 H         1 UNK         0.0482 
     84 H84        29.9689  -47.5074  -59.2088 H         1 UNK         0.3460 
     85 H85        28.3492  -46.8634  -59.2899 H         1 UNK         0.3460 
     86 H86        26.5515  -46.0033  -57.4593 H         1 UNK         0.2989 
     87 H87        24.6988  -44.3388  -58.9841 H         1 UNK         0.0559 
     88 H88        25.4862  -43.4905  -61.1641 H         1 UNK         0.0848 
     89 H89        24.3446  -44.7965  -61.4269 H         1 UNK         0.0848 
     90 H90        26.0736  -45.0818  -61.6215 H         1 UNK         0.0848 
     91 H91        24.1974  -46.4803  -58.7718 H         1 UNK         0.3144 
     92 H92        24.1865  -48.6124  -58.7446 H         1 UNK         0.0727 
     93 H93        25.8001  -49.9524  -60.9825 H         1 UNK         0.0790 
     94 H94        24.2086  -49.2314  -61.1716 H         1 UNK         0.0790 
     95 H95        24.4086  -50.6408  -60.1441 H         1 UNK         0.0790 
     96 H96        26.3931  -50.3528  -58.5940 H         1 UNK         0.3215 
     97 H97        27.0622  -50.9111  -56.4901 H         1 UNK         0.0863 
     98 H98        29.4310  -50.3402  -56.0346 H         1 UNK         0.0808 
     99 H99        29.1110  -48.6281  -56.2580 H         1 UNK         0.0808 
    100 H100       29.0118  -49.7304  -57.6277 H         1 UNK         0.0808 
    101 H101       26.7525  -48.6469  -54.6532 H         1 UNK         0.3118 
    102 H102       25.8057  -49.4110  -52.5434 H         1 UNK         0.0546 
    103 H103       27.4305  -51.6988  -51.3036 H         1 UNK         0.0828 
    104 H104       25.7416  -51.7854  -51.7834 H         1 UNK         0.0828 
    105 H105       26.2221  -50.7157  -50.4775 H         1 UNK         0.0828 
    106 H106       28.5036  -49.5155  -51.3962 H         1 UNK         0.3005 
    107 H107       29.4861  -46.3120  -52.4317 H         1 UNK         0.1257 
    108 H108       28.3760  -47.0871  -49.6770 H         1 UNK         0.0775 
    109 H109       27.9732  -45.6509  -50.5752 H         1 UNK         0.0775 
    110 H110       28.7385  -43.5550  -49.7209 H         1 UNK         0.0840 
    111 H111       30.3586  -43.1374  -49.2359 H         1 UNK         0.0840 
    112 H112       30.5112  -48.2583  -50.5688 H         1 UNK         0.2987 
    113 H113       32.6140  -49.2657  -51.2972 H         1 UNK         0.0785 
    114 H114       30.6209  -50.6922  -50.7366 H         1 UNK         0.0798 
    115 H115       31.9234  -51.7056  -51.3206 H         1 UNK         0.0798 
    116 H116       30.5752  -51.3107  -52.3835 H         1 UNK         0.0798 
    117 H117       32.4536  -49.7960  -54.1484 H         1 UNK         0.3079 
    118 H118       35.8672  -50.7174  -54.2221 H         1 UNK         0.0794 
    119 H119       35.2506  -52.5649  -55.7799 H         1 UNK         0.0786 
    120 H120       33.6234  -52.6082  -55.1004 H         1 UNK         0.0786 
    121 H121       35.0054  -53.0208  -54.1017 H         1 UNK         0.0786 
    122 H122       35.2328  -49.2367  -55.7098 H         1 UNK         0.3032 
    123 H123       34.3978  -48.6872  -57.8364 H         1 UNK         0.1094 
    124 H124       31.3435  -48.8650  -57.9767 H         1 UNK         0.0794 
    125 H125       32.3837  -48.0567  -59.1493 H         1 UNK         0.0794 
    126 H126       32.4710  -49.8012  -58.9466 H         1 UNK         0.0794 
    127 H127       32.3027  -46.9931  -56.7282 H         1 UNK         0.3016 
@<TRIPOS>BOND
     1    1    2 1    
     2    1   67 1    
     3    1   68 1    
     4    1   69 1    
     5    2    3 2    
     6    2    4 am   BACKBONE|DICT|INTERRES
     7    4    5 1    
     8    4   70 1    
     9    5    6 1    
    10    5   65 1    
    11    5   71 1    
    12    6    7 1    
    13    6   72 1    
    14    6   73 1    
    15    7    8 1    
    16    8    9 1    
    17    8   74 1    
    18    8   75 1    
    19    9   10 ar   
    20    9   14 ar   
    21   10   11 ar   
    22   10   76 1    
    23   11   12 ar   
    24   11   48 1    
    25   12   13 ar   
    26   12   77 1    
    27   13   14 ar   
    28   13   15 1    
    29   14   78 1    
    30   15   16 1    
    31   15   79 1    
    32   15   80 1    
    33   16   17 1    
    34   17   18 1    
    35   17   81 1    
    36   17   82 1    
    37   18   19 1    
    38   18   22 1    
    39   18   83 1    
    40   19   20 am   BACKBONE|DICT|INTERRES
    41   19   21 2    
    42   20   84 1    
    43   20   85 1    
    44   22   23 am   BACKBONE|DICT|INTERRES
    45   22   86 1    
    46   23   24 2    
    47   23   25 1    
    48   25   26 1    
    49   25   27 1    
    50   25   87 1    
    51   26   88 1    
    52   26   89 1    
    53   26   90 1    
    54   27   28 am   BACKBONE|DICT|INTERRES
    55   27   91 1    
    56   28   29 2    
    57   28   30 1    
    58   30   31 1    
    59   30   32 1    
    60   30   92 1    
    61   31   93 1    
    62   31   94 1    
    63   31   95 1    
    64   32   33 am   BACKBONE|DICT|INTERRES
    65   32   96 1    
    66   33   34 2    
    67   33   35 1    
    68   35   36 1    
    69   35   37 1    
    70   35   97 1    
    71   36   98 1    
    72   36   99 1    
    73   36  100 1    
    74   37   38 am   BACKBONE|DICT|INTERRES
    75   37  101 1    
    76   38   39 2    
    77   38   40 1    
    78   40   41 1    
    79   40   42 1    
    80   40  102 1    
    81   41  103 1    
    82   41  104 1    
    83   41  105 1    
    84   42   43 am   BACKBONE|DICT|INTERRES
    85   42  106 1    
    86   43   44 2    
    87   43   45 1    
    88   45   46 1    
    89   45   49 1    
    90   45  107 1    
    91   46   47 1    
    92   46  108 1    
    93   46  109 1    
    94   47   48 1    
    95   48  110 1    
    96   48  111 1    
    97   49   50 am   BACKBONE|DICT|INTERRES
    98   49  112 1    
    99   50   51 2    
   100   50   52 1    
   101   52   53 1    
   102   52   54 1    
   103   52  113 1    
   104   53  114 1    
   105   53  115 1    
   106   53  116 1    
   107   54   55 am   BACKBONE|DICT|INTERRES
   108   54  117 1    
   109   55   56 2    
   110   55   57 1    
   111   57   58 1    
   112   57   59 1    
   113   57  118 1    
   114   58  119 1    
   115   58  120 1    
   116   58  121 1    
   117   59   60 am   BACKBONE|DICT|INTERRES
   118   59  122 1    
   119   60   61 2    
   120   60   62 1    
   121   62   63 1    
   122   62   64 1    
   123   62  123 1    
   124   63  124 1    
   125   63  125 1    
   126   63  126 1    
   127   64   65 am   BACKBONE|DICT|INTERRES
   128   64  127 1    
   129   65   66 2    
@<TRIPOS>SUBSTRUCTURE
     1 UNK         1 GROUP             0       ****    0 ROOT    
