@<TRIPOS>MOLECULE
3R134
127   129    1
SMALL
USER_CHARGES


@<TRIPOS>ATOM
      1 CA         37.6367  -44.5759  -47.8799 C.3       0 UNK        -0.1968 
      2 C          36.9303  -44.7892  -49.2109 C.2       0 UNK         0.4852 
      3 O          37.5637  -44.6828  -50.2625 O.2       0 UNK        -0.5359 
      4 N          35.6234  -45.0810  -49.1742 N.am      1 UNK        -0.4300 
      5 CA         34.8005  -45.3838  -50.3472 C.3       1 UNK         0.0863 
      6 C6         33.2920  -45.2594  -50.0055 C.3       11 UNK        -0.0953 
      7 S7         32.1896  -45.4283  -51.4491 S.3       11 UNK        -0.2369 
      8 C8         32.1783  -43.7272  -52.0905 C.3       11 UNK         0.0226 
      9 C9         31.6620  -43.7084  -53.5192 C.ar      11 UNK        -0.0699 
     10 C10        32.4889  -44.1397  -54.5578 C.ar      11 UNK        -0.0804 
     11 C11        32.0180  -44.1760  -55.8710 C.ar      11 UNK        -0.0871 
     12 C12        30.7105  -43.7678  -56.1459 C.ar      11 UNK        -0.1008 
     13 C13        29.8696  -43.3154  -55.1166 C.ar      11 UNK        -0.0735 
     14 C14        30.3607  -43.2867  -53.8062 C.ar      11 UNK        -0.0945 
     15 C15        28.4236  -42.8686  -55.3490 C.3       11 UNK         0.0169 
     16 S16        27.8461  -42.9295  -57.0789 S.3       11 UNK        -0.2669 
     17 C17        26.0597  -42.6216  -56.8675 C.3       11 UNK        -0.0850 
     18 CA         25.2156  -43.9238  -56.8849 C.3       10 UNK         0.0855 
     19 C          23.7087  -43.5809  -56.7266 C.2       10 UNK         0.5543 
     20 N          23.1782  -43.6540  -55.5137 N.am      10 UNK        -0.7343 
     21 O          23.0366  -43.1988  -57.6829 O.2       10 UNK        -0.5027 
     22 N          25.5177  -44.7309  -58.0765 N.am      10 UNK        -0.4495 
     23 C          24.9778  -45.9102  -58.4061 C.2       10 UNK         0.4903 
     24 O          24.1009  -46.4784  -57.7543 O.2       10 UNK        -0.4860 
     25 CA         25.5046  -46.5856  -59.6813 C.3       9 UNK         0.0227 
     26 CB         26.5068  -45.7371  -60.4939 C.3       9 UNK        -0.1964 
     27 N          26.1450  -47.8389  -59.2940 N.am      9 UNK        -0.4231 
     28 C          25.7967  -49.0544  -59.7314 C.2       9 UNK         0.5014 
     29 O          24.9104  -49.2625  -60.5620 O.2       9 UNK        -0.5270 
     30 CA         26.5759  -50.2498  -59.1582 C.3       8 UNK         0.0284 
     31 CB         27.8814  -50.4629  -59.9412 C.3       8 UNK        -0.1977 
     32 N          26.8698  -50.1279  -57.7270 N.am      8 UNK        -0.4342 
     33 C          25.9470  -50.1900  -56.7553 C.2       8 UNK         0.5039 
     34 O          24.7438  -50.3532  -56.9619 O.2       8 UNK        -0.5547 
     35 CA         26.4469  -50.0725  -55.3060 C.3       7 UNK         0.0281 
     36 CB         27.0310  -51.4089  -54.8191 C.3       7 UNK        -0.1963 
     37 N          27.4444  -49.0164  -55.1443 N.am      7 UNK        -0.4444 
     38 C          27.1727  -47.7045  -55.1379 C.2       7 UNK         0.5104 
     39 O          26.0364  -47.2365  -55.1857 O.2       7 UNK        -0.5100 
     40 CA         28.3777  -46.7508  -55.0733 C.3       6 UNK         0.0396 
     41 CB         28.8061  -46.5203  -53.6151 C.3       6 UNK        -0.1801 
     42 N          29.5183  -47.2329  -55.8564 N.am      6 UNK        -0.4747 
     43 C          29.5238  -47.3406  -57.1931 C.2       6 UNK         0.5012 
     44 O          28.5738  -47.0189  -57.9076 O.2       6 UNK        -0.5003 
     45 CA         30.7665  -47.9778  -57.8453 C.3       5 UNK         0.0782 
     46 C46        31.8138  -46.9255  -58.2962 C.3       11 UNK        -0.0868 
     47 S47        33.0426  -46.4681  -57.0210 S.3       11 UNK        -0.2515 
     48 C48        32.9356  -44.6524  -56.9844 C.3       11 UNK         0.0199 
     49 N          31.3480  -49.0464  -57.0263 N.am      5 UNK        -0.4607 
     50 C          30.7532  -50.2159  -56.7649 C.2       4 UNK         0.5031 
     51 O          29.6536  -50.5379  -57.2124 O.2       4 UNK        -0.5119 
     52 CA         31.4866  -51.1563  -55.7964 C.3       4 UNK         0.0263 
     53 CB         32.6915  -51.8199  -56.4818 C.3       4 UNK        -0.1967 
     54 N          31.9242  -50.4862  -54.5677 N.am      4 UNK        -0.4237 
     55 C          31.1170  -49.8779  -53.6900 C.2       3 UNK         0.4908 
     56 O          29.8995  -49.7918  -53.8423 O.2       3 UNK        -0.5102 
     57 CA         31.7468  -49.2478  -52.4347 C.3       3 UNK         0.0241 
     58 CB         31.8271  -50.2748  -51.2896 C.3       3 UNK        -0.1971 
     59 N          33.0369  -48.5703  -52.6317 N.am      3 UNK        -0.4139 
     60 C          34.2283  -49.0847  -52.9731 C.2       2 UNK         0.5016 
     61 O          34.4042  -50.2639  -53.2819 O.2       2 UNK        -0.5319 
     62 CA         35.4307  -48.1215  -52.9926 C.3       2 UNK         0.0286 
     63 CB         35.8185  -47.7775  -54.4395 C.3       2 UNK        -0.1963 
     64 N          35.1994  -46.8755  -52.2530 N.am      2 UNK        -0.4790 
     65 C          35.1625  -46.7733  -50.9166 C.2       1 UNK         0.5024 
     66 O          35.3632  -47.7189  -50.1506 O.2       1 UNK        -0.4888 
     67 H67        38.0654  -43.5749  -47.8387 H         1 UNK         0.0892 
     68 H68        36.9578  -44.6887  -47.0346 H         1 UNK         0.0892 
     69 H69        38.4445  -45.2981  -47.7643 H         1 UNK         0.0892 
     70 H70        35.1662  -45.1863  -48.2797 H         1 UNK         0.3107 
     71 H71        35.0361  -44.6336  -51.1052 H         1 UNK         0.0773 
     72 H72        33.0042  -46.0141  -49.2710 H         1 UNK         0.0680 
     73 H73        33.0921  -44.2946  -49.5361 H         1 UNK         0.0680 
     74 H74        33.1864  -43.3114  -52.0651 H         1 UNK         0.0650 
     75 H75        31.5642  -43.0996  -51.4429 H         1 UNK         0.0650 
     76 H76        33.4965  -44.4665  -54.3414 H         1 UNK         0.1397 
     77 H77        30.3614  -43.8130  -57.1668 H         1 UNK         0.1363 
     78 H78        29.7183  -42.9554  -53.0015 H         1 UNK         0.1355 
     79 H79        28.3078  -41.8471  -54.9836 H         1 UNK         0.0707 
     80 H80        27.7673  -43.4940  -54.7421 H         1 UNK         0.0707 
     81 H81        25.8953  -42.0695  -55.9399 H         1 UNK         0.1034 
     82 H82        25.7416  -41.9540  -57.6709 H         1 UNK         0.1034 
     83 H83        25.5154  -44.5292  -56.0271 H         1 UNK         0.0482 
     84 H84        23.7233  -43.9641  -54.7243 H         1 UNK         0.3460 
     85 H85        22.2063  -43.4173  -55.3886 H         1 UNK         0.3460 
     86 H86        26.2419  -44.3565  -58.6707 H         1 UNK         0.2989 
     87 H87        24.6341  -46.7737  -60.3127 H         1 UNK         0.0559 
     88 H88        27.4146  -45.5176  -59.9298 H         1 UNK         0.0848 
     89 H89        26.0644  -44.7901  -60.8059 H         1 UNK         0.0848 
     90 H90        26.8079  -46.2592  -61.4023 H         1 UNK         0.0848 
     91 H91        26.8946  -47.7528  -58.6124 H         1 UNK         0.3144 
     92 H92        25.9566  -51.1393  -59.2926 H         1 UNK         0.0727 
     93 H93        28.4072  -51.3554  -59.6012 H         1 UNK         0.0790 
     94 H94        28.5572  -49.6143  -59.8358 H         1 UNK         0.0790 
     95 H95        27.6816  -50.5909  -61.0059 H         1 UNK         0.0790 
     96 H96        27.8527  -50.0816  -57.4646 H         1 UNK         0.3215 
     97 H97        25.5880  -49.8300  -54.6762 H         1 UNK         0.0863 
     98 H98        27.3223  -51.3537  -53.7700 H         1 UNK         0.0808 
     99 H99        27.9114  -51.7004  -55.3929 H         1 UNK         0.0808 
    100 H100       26.2987  -52.2120  -54.9118 H         1 UNK         0.0808 
    101 H101       28.4070  -49.3094  -54.9987 H         1 UNK         0.3118 
    102 H102       28.0719  -45.7936  -55.4989 H         1 UNK         0.0546 
    103 H103       28.0471  -45.9520  -53.0767 H         1 UNK         0.0828 
    104 H104       29.7380  -45.9610  -53.5531 H         1 UNK         0.0828 
    105 H105       28.9482  -47.4569  -53.0768 H         1 UNK         0.0828 
    106 H106       30.3310  -47.5423  -55.3451 H         1 UNK         0.3005 
    107 H107       30.3960  -48.4539  -58.7559 H         1 UNK         0.1257 
    108 H108       31.3245  -46.0343  -58.6941 H         1 UNK         0.0775 
    109 H109       32.3801  -47.3345  -59.1342 H         1 UNK         0.0775 
    110 H110       33.9365  -44.2508  -56.8194 H         1 UNK         0.0840 
    111 H111       32.6170  -44.2632  -57.9524 H         1 UNK         0.0840 
    112 H112       32.2463  -48.8440  -56.6114 H         1 UNK         0.2987 
    113 H113       30.7835  -51.9408  -55.5085 H         1 UNK         0.0785 
    114 H114       32.3884  -52.3291  -57.3978 H         1 UNK         0.0798 
    115 H115       33.1519  -52.5668  -55.8346 H         1 UNK         0.0798 
    116 H116       33.4588  -51.0925  -56.7497 H         1 UNK         0.0798 
    117 H117       32.9122  -50.5352  -54.3266 H         1 UNK         0.3079 
    118 H118       31.0606  -48.4627  -52.1134 H         1 UNK         0.0794 
    119 H119       32.4954  -51.1024  -51.5293 H         1 UNK         0.0786 
    120 H120       30.8452  -50.7015  -51.0801 H         1 UNK         0.0786 
    121 H121       32.1829  -49.8126  -50.3686 H         1 UNK         0.0786 
    122 H122       33.0201  -47.5779  -52.4358 H         1 UNK         0.3032 
    123 H123       36.2681  -48.6478  -52.5283 H         1 UNK         0.1094 
    124 H124       35.0308  -47.2200  -54.9459 H         1 UNK         0.0794 
    125 H125       36.7290  -47.1790  -54.4747 H         1 UNK         0.0794 
    126 H126       36.0050  -48.6809  -55.0221 H         1 UNK         0.0794 
    127 H127       35.0341  -46.0476  -52.8071 H         1 UNK         0.3016 
@<TRIPOS>BOND
     1    1    2 1    
     2    1   67 1    
     3    1   68 1    
     4    1   69 1    
     5    2    3 2    
     6    2    4 am   BACKBONE|DICT|INTERRES
     7    4    5 1    
     8    4   70 1    
     9    5    6 1    
    10    5   65 1    
    11    5   71 1    
    12    6    7 1    
    13    6   72 1    
    14    6   73 1    
    15    7    8 1    
    16    8    9 1    
    17    8   74 1    
    18    8   75 1    
    19    9   10 ar   
    20    9   14 ar   
    21   10   11 ar   
    22   10   76 1    
    23   11   12 ar   
    24   11   48 1    
    25   12   13 ar   
    26   12   77 1    
    27   13   14 ar   
    28   13   15 1    
    29   14   78 1    
    30   15   16 1    
    31   15   79 1    
    32   15   80 1    
    33   16   17 1    
    34   17   18 1    
    35   17   81 1    
    36   17   82 1    
    37   18   19 1    
    38   18   22 1    
    39   18   83 1    
    40   19   20 am   BACKBONE|DICT|INTERRES
    41   19   21 2    
    42   20   84 1    
    43   20   85 1    
    44   22   23 am   BACKBONE|DICT|INTERRES
    45   22   86 1    
    46   23   24 2    
    47   23   25 1    
    48   25   26 1    
    49   25   27 1    
    50   25   87 1    
    51   26   88 1    
    52   26   89 1    
    53   26   90 1    
    54   27   28 am   BACKBONE|DICT|INTERRES
    55   27   91 1    
    56   28   29 2    
    57   28   30 1    
    58   30   31 1    
    59   30   32 1    
    60   30   92 1    
    61   31   93 1    
    62   31   94 1    
    63   31   95 1    
    64   32   33 am   BACKBONE|DICT|INTERRES
    65   32   96 1    
    66   33   34 2    
    67   33   35 1    
    68   35   36 1    
    69   35   37 1    
    70   35   97 1    
    71   36   98 1    
    72   36   99 1    
    73   36  100 1    
    74   37   38 am   BACKBONE|DICT|INTERRES
    75   37  101 1    
    76   38   39 2    
    77   38   40 1    
    78   40   41 1    
    79   40   42 1    
    80   40  102 1    
    81   41  103 1    
    82   41  104 1    
    83   41  105 1    
    84   42   43 am   BACKBONE|DICT|INTERRES
    85   42  106 1    
    86   43   44 2    
    87   43   45 1    
    88   45   46 1    
    89   45   49 1    
    90   45  107 1    
    91   46   47 1    
    92   46  108 1    
    93   46  109 1    
    94   47   48 1    
    95   48  110 1    
    96   48  111 1    
    97   49   50 am   BACKBONE|DICT|INTERRES
    98   49  112 1    
    99   50   51 2    
   100   50   52 1    
   101   52   53 1    
   102   52   54 1    
   103   52  113 1    
   104   53  114 1    
   105   53  115 1    
   106   53  116 1    
   107   54   55 am   BACKBONE|DICT|INTERRES
   108   54  117 1    
   109   55   56 2    
   110   55   57 1    
   111   57   58 1    
   112   57   59 1    
   113   57  118 1    
   114   58  119 1    
   115   58  120 1    
   116   58  121 1    
   117   59   60 am   BACKBONE|DICT|INTERRES
   118   59  122 1    
   119   60   61 2    
   120   60   62 1    
   121   62   63 1    
   122   62   64 1    
   123   62  123 1    
   124   63  124 1    
   125   63  125 1    
   126   63  126 1    
   127   64   65 am   BACKBONE|DICT|INTERRES
   128   64  127 1    
   129   65   66 2    
@<TRIPOS>SUBSTRUCTURE
     1 UNK         1 GROUP             0       ****    0 ROOT    
