@<TRIPOS>MOLECULE
3R134
127   129    1
SMALL
USER_CHARGES


@<TRIPOS>ATOM
      1 CA         30.6712  -44.8139  -47.2843 C.3       0 UNK        -0.1968 
      2 C          31.8958  -45.0617  -48.1530 C.2       0 UNK         0.4852 
      3 O          32.9635  -45.3759  -47.6251 O.2       0 UNK        -0.5359 
      4 N          31.7489  -44.9169  -49.4779 N.am      1 UNK        -0.4300 
      5 CA         32.8041  -45.1456  -50.4729 C.3       1 UNK         0.0863 
      6 C6         32.3959  -44.5718  -51.8535 C.3       11 UNK        -0.0953 
      7 S7         33.8134  -44.3483  -52.9775 S.3       11 UNK        -0.2369 
      8 C8         33.2638  -42.9667  -54.0342 C.3       11 UNK         0.0226 
      9 C9         32.6030  -43.4402  -55.3236 C.ar      11 UNK        -0.0699 
     10 C10        33.3523  -44.1622  -56.2577 C.ar      11 UNK        -0.0804 
     11 C11        32.7921  -44.5451  -57.4782 C.ar      11 UNK        -0.0871 
     12 C12        31.4680  -44.2053  -57.7587 C.ar      11 UNK        -0.1008 
     13 C13        30.6992  -43.4818  -56.8414 C.ar      11 UNK        -0.0735 
     14 C14        31.2744  -43.1066  -55.6170 C.ar      11 UNK        -0.0945 
     15 C15        29.2758  -43.1149  -57.2647 C.3       11 UNK         0.0169 
     16 S16        28.2772  -42.1350  -56.0889 S.3       11 UNK        -0.2669 
     17 C17        27.6275  -43.4182  -54.9610 C.3       11 UNK        -0.0850 
     18 CA         26.2232  -43.9655  -55.3462 C.3       10 UNK         0.0855 
     19 C          25.0912  -42.9217  -55.1112 C.2       10 UNK         0.5543 
     20 N          24.3097  -42.5470  -56.1171 N.am      10 UNK        -0.7343 
     21 O          24.9101  -42.4549  -53.9892 O.2       10 UNK        -0.5027 
     22 N          26.2272  -44.5966  -56.6779 N.am      10 UNK        -0.4495 
     23 C          25.3891  -45.5608  -57.0813 C.2       10 UNK         0.4903 
     24 O          24.4952  -46.0305  -56.3764 O.2       10 UNK        -0.4860 
     25 CA         25.5565  -46.0867  -58.5171 C.3       9 UNK         0.0227 
     26 CB         26.4280  -45.1938  -59.4253 C.3       9 UNK        -0.1964 
     27 N          26.1327  -47.4303  -58.4719 N.am      9 UNK        -0.4231 
     28 C          25.4619  -48.5675  -58.7008 C.2       9 UNK         0.5014 
     29 O          24.2710  -48.6168  -59.0136 O.2       9 UNK        -0.5270 
     30 CA         26.2549  -49.8807  -58.5732 C.3       8 UNK         0.0284 
     31 CB         27.1761  -50.0858  -59.7873 C.3       8 UNK        -0.1977 
     32 N          27.0389  -49.9555  -57.3390 N.am      8 UNK        -0.4342 
     33 C          26.5166  -50.0757  -56.1094 C.2       8 UNK         0.5039 
     34 O          25.3129  -50.2059  -55.8833 O.2       8 UNK        -0.5547 
     35 CA         27.5022  -50.0347  -54.9282 C.3       7 UNK         0.0281 
     36 CB         28.1140  -51.4208  -54.6687 C.3       7 UNK        -0.1963 
     37 N          28.5687  -49.0550  -55.1362 N.am      7 UNK        -0.4444 
     38 C          28.3836  -47.7288  -55.1482 C.2       7 UNK         0.5104 
     39 O          27.3206  -47.1845  -54.8597 O.2       7 UNK        -0.5100 
     40 CA         29.5781  -46.8611  -55.5694 C.3       6 UNK         0.0396 
     41 CB         30.4217  -46.4737  -54.3507 C.3       6 UNK        -0.1801 
     42 N          30.4211  -47.5068  -56.5735 N.am      6 UNK        -0.4747 
     43 C          30.0755  -47.6539  -57.8593 C.2       6 UNK         0.5012 
     44 O          29.0119  -47.2472  -58.3277 O.2       6 UNK        -0.5003 
     45 CA         31.0538  -48.4310  -58.7625 C.3       5 UNK         0.0782 
     46 C46        32.1062  -47.5022  -59.4218 C.3       11 UNK        -0.0868 
     47 S47        33.5225  -47.0812  -58.3403 S.3       11 UNK        -0.2515 
     48 C48        33.6375  -45.2747  -58.5115 C.3       11 UNK         0.0199 
     49 N          31.6756  -49.5610  -58.0669 N.am      5 UNK        -0.4607 
     50 C          31.0250  -50.6305  -57.5944 C.2       4 UNK         0.5031 
     51 O          29.8221  -50.8272  -57.7631 O.2       4 UNK        -0.5119 
     52 CA         31.8495  -51.6059  -56.7348 C.3       4 UNK         0.0263 
     53 CB         32.5907  -52.6167  -57.6237 C.3       4 UNK        -0.1967 
     54 N          32.8069  -50.9254  -55.8501 N.am      4 UNK        -0.4237 
     55 C          32.4533  -50.0730  -54.8779 C.2       3 UNK         0.4908 
     56 O          31.2823  -49.7817  -54.6290 O.2       3 UNK        -0.5102 
     57 CA         33.5894  -49.3835  -54.1038 C.3       3 UNK         0.0241 
     58 CB         34.1358  -48.1869  -54.9003 C.3       3 UNK        -0.1971 
     59 N          33.1254  -48.8982  -52.8036 N.am      3 UNK        -0.4139 
     60 C          32.8981  -49.6670  -51.7316 C.2       2 UNK         0.5016 
     61 O          33.1403  -50.8754  -51.7049 O.2       2 UNK        -0.5319 
     62 CA         32.2782  -48.9964  -50.4851 C.3       2 UNK         0.0286 
     63 CB         32.9622  -49.4625  -49.1819 C.3       2 UNK        -0.1963 
     64 N          32.1902  -47.5257  -50.5235 N.am      2 UNK        -0.4790 
     65 C          33.1995  -46.6383  -50.5575 C.2       1 UNK         0.5024 
     66 O          34.3880  -46.9506  -50.6337 O.2       1 UNK        -0.4888 
     67 H67        30.4251  -45.7122  -46.7186 H         1 UNK         0.0892 
     68 H68        30.8698  -44.0093  -46.5768 H         1 UNK         0.0892 
     69 H69        29.7989  -44.5367  -47.8760 H         1 UNK         0.0892 
     70 H70        30.8489  -44.6405  -49.8439 H         1 UNK         0.3107 
     71 H71        33.6843  -44.5981  -50.1276 H         1 UNK         0.0773 
     72 H72        31.6468  -45.1978  -52.3323 H         1 UNK         0.0680 
     73 H73        31.9257  -43.5975  -51.7130 H         1 UNK         0.0680 
     74 H74        34.1394  -42.3719  -54.2977 H         1 UNK         0.0650 
     75 H75        32.6072  -42.2983  -53.4761 H         1 UNK         0.0650 
     76 H76        34.3821  -44.4099  -56.0386 H         1 UNK         0.1397 
     77 H77        31.0362  -44.4898  -58.7085 H         1 UNK         0.1363 
     78 H78        30.7059  -42.5352  -54.8979 H         1 UNK         0.1355 
     79 H79        29.3389  -42.5405  -58.1902 H         1 UNK         0.0707 
     80 H80        28.7463  -44.0325  -57.5142 H         1 UNK         0.0707 
     81 H81        28.3424  -44.2356  -54.8990 H         1 UNK         0.1034 
     82 H82        27.6021  -42.9985  -53.9536 H         1 UNK         0.1034 
     83 H83        26.0083  -44.7609  -54.6301 H         1 UNK         0.0482 
     84 H84        23.5771  -41.8752  -55.9511 H         1 UNK         0.3460 
     85 H85        24.4480  -42.9278  -57.0387 H         1 UNK         0.3460 
     86 H86        26.9023  -44.2337  -57.3317 H         1 UNK         0.2989 
     87 H87        24.5570  -46.1141  -58.9555 H         1 UNK         0.0559 
     88 H88        26.0646  -44.1653  -59.4430 H         1 UNK         0.0848 
     89 H89        26.4035  -45.5540  -60.4539 H         1 UNK         0.0848 
     90 H90        27.4728  -45.1802  -59.1169 H         1 UNK         0.0848 
     91 H91        27.1219  -47.4830  -58.2399 H         1 UNK         0.3144 
     92 H92        25.5350  -50.7020  -58.5586 H         1 UNK         0.0727 
     93 H93        27.6869  -51.0478  -59.7388 H         1 UNK         0.0790 
     94 H94        27.9363  -49.3077  -59.8572 H         1 UNK         0.0790 
     95 H95        26.6052  -50.0682  -60.7166 H         1 UNK         0.0790 
     96 H96        28.0501  -49.9548  -57.4349 H         1 UNK         0.3215 
     97 H97        26.9430  -49.7384  -54.0379 H         1 UNK         0.0863 
     98 H98        28.7940  -51.4010  -53.8166 H         1 UNK         0.0808 
     99 H99        28.6704  -51.7875  -55.5312 H         1 UNK         0.0808 
    100 H100       27.3363  -52.1530  -54.4483 H         1 UNK         0.0808 
    101 H101       29.5130  -49.4093  -55.2654 H         1 UNK         0.3118 
    102 H102       29.1847  -45.9493  -56.0179 H         1 UNK         0.0546 
    103 H103       29.8309  -45.8775  -53.6548 H         1 UNK         0.0828 
    104 H104       31.2865  -45.8794  -54.6426 H         1 UNK         0.0828 
    105 H105       30.7803  -47.3466  -53.8066 H         1 UNK         0.0828 
    106 H106       31.2923  -47.9053  -56.2566 H         1 UNK         0.3005 
    107 H107       30.4446  -48.8513  -59.5662 H         1 UNK         0.1257 
    108 H108       32.5186  -48.0037  -60.2986 H         1 UNK         0.0775 
    109 H109       31.6361  -46.5958  -59.8071 H         1 UNK         0.0775 
    110 H110       34.6833  -44.9857  -58.3961 H         1 UNK         0.0840 
    111 H111       33.3585  -44.9716  -59.5217 H         1 UNK         0.0840 
    112 H112       32.6638  -49.4684  -57.8814 H         1 UNK         0.2987 
    113 H113       31.1492  -52.1568  -56.1033 H         1 UNK         0.0785 
    114 H114       33.1041  -53.3696  -57.0254 H         1 UNK         0.0798 
    115 H115       33.3306  -52.1314  -58.2615 H         1 UNK         0.0798 
    116 H116       31.8940  -53.1449  -58.2765 H         1 UNK         0.0798 
    117 H117       33.7871  -51.1148  -56.0053 H         1 UNK         0.3079 
    118 H118       34.3949  -50.1032  -53.9433 H         1 UNK         0.0794 
    119 H119       34.5605  -48.5094  -55.8514 H         1 UNK         0.0786 
    120 H120       34.9293  -47.6764  -54.3538 H         1 UNK         0.0786 
    121 H121       33.3601  -47.4517  -55.1193 H         1 UNK         0.0786 
    122 H122       32.8927  -47.9196  -52.7386 H         1 UNK         0.3032 
    123 H123       31.2474  -49.3537  -50.4545 H         1 UNK         0.1094 
    124 H124       34.0213  -49.2036  -49.1651 H         1 UNK         0.0794 
    125 H125       32.4939  -49.0143  -48.3054 H         1 UNK         0.0794 
    126 H126       32.8922  -50.5447  -49.0655 H         1 UNK         0.0794 
    127 H127       31.2523  -47.1533  -50.4650 H         1 UNK         0.3016 
@<TRIPOS>BOND
     1    1    2 1    
     2    1   67 1    
     3    1   68 1    
     4    1   69 1    
     5    2    3 2    
     6    2    4 am   BACKBONE|DICT|INTERRES
     7    4    5 1    
     8    4   70 1    
     9    5    6 1    
    10    5   65 1    
    11    5   71 1    
    12    6    7 1    
    13    6   72 1    
    14    6   73 1    
    15    7    8 1    
    16    8    9 1    
    17    8   74 1    
    18    8   75 1    
    19    9   10 ar   
    20    9   14 ar   
    21   10   11 ar   
    22   10   76 1    
    23   11   12 ar   
    24   11   48 1    
    25   12   13 ar   
    26   12   77 1    
    27   13   14 ar   
    28   13   15 1    
    29   14   78 1    
    30   15   16 1    
    31   15   79 1    
    32   15   80 1    
    33   16   17 1    
    34   17   18 1    
    35   17   81 1    
    36   17   82 1    
    37   18   19 1    
    38   18   22 1    
    39   18   83 1    
    40   19   20 am   BACKBONE|DICT|INTERRES
    41   19   21 2    
    42   20   84 1    
    43   20   85 1    
    44   22   23 am   BACKBONE|DICT|INTERRES
    45   22   86 1    
    46   23   24 2    
    47   23   25 1    
    48   25   26 1    
    49   25   27 1    
    50   25   87 1    
    51   26   88 1    
    52   26   89 1    
    53   26   90 1    
    54   27   28 am   BACKBONE|DICT|INTERRES
    55   27   91 1    
    56   28   29 2    
    57   28   30 1    
    58   30   31 1    
    59   30   32 1    
    60   30   92 1    
    61   31   93 1    
    62   31   94 1    
    63   31   95 1    
    64   32   33 am   BACKBONE|DICT|INTERRES
    65   32   96 1    
    66   33   34 2    
    67   33   35 1    
    68   35   36 1    
    69   35   37 1    
    70   35   97 1    
    71   36   98 1    
    72   36   99 1    
    73   36  100 1    
    74   37   38 am   BACKBONE|DICT|INTERRES
    75   37  101 1    
    76   38   39 2    
    77   38   40 1    
    78   40   41 1    
    79   40   42 1    
    80   40  102 1    
    81   41  103 1    
    82   41  104 1    
    83   41  105 1    
    84   42   43 am   BACKBONE|DICT|INTERRES
    85   42  106 1    
    86   43   44 2    
    87   43   45 1    
    88   45   46 1    
    89   45   49 1    
    90   45  107 1    
    91   46   47 1    
    92   46  108 1    
    93   46  109 1    
    94   47   48 1    
    95   48  110 1    
    96   48  111 1    
    97   49   50 am   BACKBONE|DICT|INTERRES
    98   49  112 1    
    99   50   51 2    
   100   50   52 1    
   101   52   53 1    
   102   52   54 1    
   103   52  113 1    
   104   53  114 1    
   105   53  115 1    
   106   53  116 1    
   107   54   55 am   BACKBONE|DICT|INTERRES
   108   54  117 1    
   109   55   56 2    
   110   55   57 1    
   111   57   58 1    
   112   57   59 1    
   113   57  118 1    
   114   58  119 1    
   115   58  120 1    
   116   58  121 1    
   117   59   60 am   BACKBONE|DICT|INTERRES
   118   59  122 1    
   119   60   61 2    
   120   60   62 1    
   121   62   63 1    
   122   62   64 1    
   123   62  123 1    
   124   63  124 1    
   125   63  125 1    
   126   63  126 1    
   127   64   65 am   BACKBONE|DICT|INTERRES
   128   64  127 1    
   129   65   66 2    
@<TRIPOS>SUBSTRUCTURE
     1 UNK         1 GROUP             0       ****    0 ROOT    
