@<TRIPOS>MOLECULE
3R134
127   129    1
SMALL
USER_CHARGES


@<TRIPOS>ATOM
      1 CA         36.6314  -47.5761  -55.2426 C.3       0 UNK        -0.1968 
      2 C          35.4440  -46.9973  -54.4900 C.2       0 UNK         0.4852 
      3 O          34.3481  -47.5590  -54.5618 O.2       0 UNK        -0.5359 
      4 N          35.6556  -45.8954  -53.7551 N.am      1 UNK        -0.4300 
      5 CA         34.6562  -45.1262  -52.9947 C.3       1 UNK         0.0863 
      6 C6         35.1661  -43.6963  -52.6683 C.3       11 UNK        -0.0953 
      7 S7         35.5661  -42.7251  -54.1614 S.3       11 UNK        -0.2369 
      8 C8         34.1171  -41.6281  -54.2929 C.3       11 UNK         0.0226 
      9 C9         32.8649  -42.3976  -54.6860 C.ar      11 UNK        -0.0699 
     10 C10        31.9417  -42.7913  -53.7150 C.ar      11 UNK        -0.0804 
     11 C11        30.8155  -43.5375  -54.0702 C.ar      11 UNK        -0.0871 
     12 C12        30.6073  -43.8778  -55.4111 C.ar      11 UNK        -0.1008 
     13 C13        31.5022  -43.4515  -56.4043 C.ar      11 UNK        -0.0735 
     14 C14        32.6329  -42.7212  -56.0249 C.ar      11 UNK        -0.0945 
     15 C15        31.3178  -43.7561  -57.8941 C.3       11 UNK         0.0169 
     16 S16        29.6847  -44.3986  -58.3989 S.3       11 UNK        -0.2669 
     17 C17        28.6094  -42.9490  -58.0915 C.3       11 UNK        -0.0850 
     18 CA         27.0904  -43.2756  -58.1046 C.3       10 UNK         0.0855 
     19 C          26.5283  -43.3649  -59.5510 C.2       10 UNK         0.5543 
     20 N          26.1959  -42.2303  -60.1521 N.am      10 UNK        -0.7343 
     21 O          26.4241  -44.4363  -60.1444 O.2       10 UNK        -0.5027 
     22 N          26.7968  -44.4687  -57.3022 N.am      10 UNK        -0.4495 
     23 C          25.5933  -44.8296  -56.8444 C.2       10 UNK         0.4903 
     24 O          24.5819  -44.1313  -56.9336 O.2       10 UNK        -0.4860 
     25 CA         25.5371  -46.2137  -56.1707 C.3       9 UNK         0.0227 
     26 CB         24.1126  -46.6489  -55.7652 C.3       9 UNK        -0.1964 
     27 N          26.2085  -47.2384  -56.9819 N.am      9 UNK        -0.4231 
     28 C          25.8533  -47.6602  -58.2064 C.2       9 UNK         0.5014 
     29 O          24.8213  -47.3209  -58.7867 O.2       9 UNK        -0.5270 
     30 CA         26.8121  -48.6288  -58.9109 C.3       8 UNK         0.0284 
     31 CB         27.9473  -47.8520  -59.6011 C.3       8 UNK        -0.1977 
     32 N          27.3873  -49.6023  -57.9788 N.am      8 UNK        -0.4342 
     33 C          27.1199  -50.9156  -57.9944 C.2       8 UNK         0.5039 
     34 O          26.3269  -51.4512  -58.7740 O.2       8 UNK        -0.5547 
     35 CA         27.8833  -51.7968  -56.9936 C.3       7 UNK         0.0281 
     36 CB         29.2969  -52.1028  -57.5158 C.3       7 UNK        -0.1963 
     37 N          27.9698  -51.2352  -55.6438 N.am      7 UNK        -0.4444 
     38 C          26.9398  -51.1623  -54.7879 C.2       7 UNK         0.5104 
     39 O          25.7811  -51.4596  -55.0796 O.2       7 UNK        -0.5100 
     40 CA         27.2605  -50.7118  -53.3538 C.3       6 UNK         0.0396 
     41 CB         27.9547  -51.8388  -52.5709 C.3       6 UNK        -0.1801 
     42 N          28.1074  -49.5220  -53.3448 N.am      6 UNK        -0.4747 
     43 C          27.6472  -48.2634  -53.3797 C.2       6 UNK         0.5012 
     44 O          26.4536  -47.9682  -53.3297 O.2       6 UNK        -0.5003 
     45 CA         28.6971  -47.1409  -53.5107 C.3       5 UNK         0.0782 
     46 C46        29.0529  -46.5669  -52.1148 C.3       11 UNK        -0.0868 
     47 S47        30.4792  -45.4306  -52.1135 S.3       11 UNK        -0.2515 
     48 C48        29.8337  -43.9792  -52.9968 C.3       11 UNK         0.0199 
     49 N          29.8743  -47.5727  -54.2685 N.am      5 UNK        -0.4607 
     50 C          29.8701  -47.8982  -55.5666 C.2       4 UNK         0.5031 
     51 O          28.8643  -47.8563  -56.2747 O.2       4 UNK        -0.5119 
     52 CA         31.1918  -48.4043  -56.1629 C.3       4 UNK         0.0263 
     53 CB         31.9764  -47.2412  -56.7841 C.3       4 UNK        -0.1967 
     54 N          32.0332  -49.1011  -55.1857 N.am      4 UNK        -0.4237 
     55 C          31.6969  -50.2511  -54.5810 C.2       3 UNK         0.4908 
     56 O          30.6367  -50.8439  -54.7820 O.2       3 UNK        -0.5102 
     57 CA         32.6804  -50.8041  -53.5401 C.3       3 UNK         0.0241 
     58 CB         33.8807  -51.4740  -54.2282 C.3       3 UNK        -0.1971 
     59 N          33.1539  -49.7695  -52.6201 N.am      3 UNK        -0.4139 
     60 C          32.3867  -49.1279  -51.7255 C.2       2 UNK         0.5016 
     61 O          31.1930  -49.3660  -51.5436 O.2       2 UNK        -0.5319 
     62 CA         33.0624  -47.9897  -50.9552 C.3       2 UNK         0.0286 
     63 CB         34.0640  -48.5259  -49.9145 C.3       2 UNK        -0.1963 
     64 N          33.7134  -47.1109  -51.9215 N.am      2 UNK        -0.4790 
     65 C          34.1533  -45.8667  -51.7295 C.2       1 UNK         0.5024 
     66 O          34.1644  -45.3128  -50.6287 O.2       1 UNK        -0.4888 
     67 H67        36.8267  -48.5943  -54.9077 H         1 UNK         0.0892 
     68 H68        37.5367  -46.9883  -55.0926 H         1 UNK         0.0892 
     69 H69        36.4173  -47.6037  -56.3106 H         1 UNK         0.0892 
     70 H70        36.5865  -45.5046  -53.7318 H         1 UNK         0.3107 
     71 H71        33.7797  -45.0207  -53.6377 H         1 UNK         0.0773 
     72 H72        36.0629  -43.7469  -52.0482 H         1 UNK         0.0680 
     73 H73        34.4298  -43.1442  -52.0820 H         1 UNK         0.0680 
     74 H74        33.9691  -41.0991  -53.3502 H         1 UNK         0.0650 
     75 H75        34.3239  -40.8621  -55.0417 H         1 UNK         0.0650 
     76 H76        32.1095  -42.5389  -52.6768 H         1 UNK         0.1397 
     77 H77        29.7416  -44.4689  -55.6718 H         1 UNK         0.1363 
     78 H78        33.3448  -42.4072  -56.7764 H         1 UNK         0.1355 
     79 H79        32.0758  -44.4820  -58.1907 H         1 UNK         0.0707 
     80 H80        31.5181  -42.8532  -58.4733 H         1 UNK         0.0707 
     81 H81        28.8514  -42.1669  -58.8138 H         1 UNK         0.1034 
     82 H82        28.8651  -42.5267  -57.1193 H         1 UNK         0.1034 
     83 H83        26.5787  -42.4407  -57.6210 H         1 UNK         0.0482 
     84 H84        25.8421  -42.2630  -61.0955 H         1 UNK         0.3460 
     85 H85        26.2818  -41.3430  -59.6809 H         1 UNK         0.3460 
     86 H86        27.5574  -45.1292  -57.2384 H         1 UNK         0.2989 
     87 H87        26.1180  -46.1205  -55.2539 H         1 UNK         0.0559 
     88 H88        24.1233  -47.6231  -55.2760 H         1 UNK         0.0848 
     89 H89        23.4414  -46.7085  -56.6221 H         1 UNK         0.0848 
     90 H90        23.6761  -45.9391  -55.0617 H         1 UNK         0.0848 
     91 H91        27.1125  -47.5479  -56.6306 H         1 UNK         0.3144 
     92 H92        26.2413  -49.1371  -59.6910 H         1 UNK         0.0727 
     93 H93        28.5930  -48.5196  -60.1718 H         1 UNK         0.0790 
     94 H94        28.5712  -47.3154  -58.8859 H         1 UNK         0.0790 
     95 H95        27.5467  -47.1135  -60.2972 H         1 UNK         0.0790 
     96 H96        28.0325  -49.2334  -57.2848 H         1 UNK         0.3215 
     97 H97        27.3457  -52.7452  -56.9213 H         1 UNK         0.0863 
     98 H98        29.8200  -52.7991  -56.8599 H         1 UNK         0.0808 
     99 H99        29.9038  -51.2009  -57.5953 H         1 UNK         0.0808 
    100 H100       29.2575  -52.5583  -58.5064 H         1 UNK         0.0808 
    101 H101       28.9043  -51.0099  -55.3052 H         1 UNK         0.3118 
    102 H102       26.3167  -50.4915  -52.8498 H         1 UNK         0.0546 
    103 H103       27.3383  -52.7387  -52.5542 H         1 UNK         0.0828 
    104 H104       28.1319  -51.5483  -51.5352 H         1 UNK         0.0828 
    105 H105       28.9163  -52.1097  -53.0089 H         1 UNK         0.0828 
    106 H106       29.1073  -49.6727  -53.3952 H         1 UNK         0.3005 
    107 H107       28.2263  -46.3461  -54.0910 H         1 UNK         0.1257 
    108 H108       29.2959  -47.3749  -51.4217 H         1 UNK         0.0775 
    109 H109       28.1929  -46.0506  -51.6840 H         1 UNK         0.0775 
    110 H110       28.8584  -44.1888  -53.4362 H         1 UNK         0.0840 
    111 H111       29.6739  -43.1702  -52.2824 H         1 UNK         0.0840 
    112 H112       30.7387  -47.6308  -53.7512 H         1 UNK         0.2987 
    113 H113       30.9467  -49.1117  -56.9569 H         1 UNK         0.0785 
    114 H114       31.3959  -46.7680  -57.5760 H         1 UNK         0.0798 
    115 H115       32.9116  -47.5825  -57.2280 H         1 UNK         0.0798 
    116 H116       32.2165  -46.4736  -56.0466 H         1 UNK         0.0798 
    117 H117       32.9207  -48.6558  -54.9566 H         1 UNK         0.3079 
    118 H118       32.1536  -51.5610  -52.9548 H         1 UNK         0.0794 
    119 H119       34.4705  -50.7590  -54.8038 H         1 UNK         0.0786 
    120 H120       33.5500  -52.2535  -54.9162 H         1 UNK         0.0786 
    121 H121       34.5417  -51.9455  -53.5007 H         1 UNK         0.0786 
    122 H122       34.1256  -49.5065  -52.6994 H         1 UNK         0.3032 
    123 H123       32.2827  -47.4235  -50.4405 H         1 UNK         0.1094 
    124 H124       34.4699  -47.7212  -49.3016 H         1 UNK         0.0794 
    125 H125       33.5808  -49.2317  -49.2376 H         1 UNK         0.0794 
    126 H126       34.9023  -49.0419  -50.3834 H         1 UNK         0.0794 
    127 H127       33.7540  -47.4463  -52.8833 H         1 UNK         0.3016 
@<TRIPOS>BOND
     1    1    2 1    
     2    1   67 1    
     3    1   68 1    
     4    1   69 1    
     5    2    3 2    
     6    2    4 am   BACKBONE|DICT|INTERRES
     7    4    5 1    
     8    4   70 1    
     9    5    6 1    
    10    5   65 1    
    11    5   71 1    
    12    6    7 1    
    13    6   72 1    
    14    6   73 1    
    15    7    8 1    
    16    8    9 1    
    17    8   74 1    
    18    8   75 1    
    19    9   10 ar   
    20    9   14 ar   
    21   10   11 ar   
    22   10   76 1    
    23   11   12 ar   
    24   11   48 1    
    25   12   13 ar   
    26   12   77 1    
    27   13   14 ar   
    28   13   15 1    
    29   14   78 1    
    30   15   16 1    
    31   15   79 1    
    32   15   80 1    
    33   16   17 1    
    34   17   18 1    
    35   17   81 1    
    36   17   82 1    
    37   18   19 1    
    38   18   22 1    
    39   18   83 1    
    40   19   20 am   BACKBONE|DICT|INTERRES
    41   19   21 2    
    42   20   84 1    
    43   20   85 1    
    44   22   23 am   BACKBONE|DICT|INTERRES
    45   22   86 1    
    46   23   24 2    
    47   23   25 1    
    48   25   26 1    
    49   25   27 1    
    50   25   87 1    
    51   26   88 1    
    52   26   89 1    
    53   26   90 1    
    54   27   28 am   BACKBONE|DICT|INTERRES
    55   27   91 1    
    56   28   29 2    
    57   28   30 1    
    58   30   31 1    
    59   30   32 1    
    60   30   92 1    
    61   31   93 1    
    62   31   94 1    
    63   31   95 1    
    64   32   33 am   BACKBONE|DICT|INTERRES
    65   32   96 1    
    66   33   34 2    
    67   33   35 1    
    68   35   36 1    
    69   35   37 1    
    70   35   97 1    
    71   36   98 1    
    72   36   99 1    
    73   36  100 1    
    74   37   38 am   BACKBONE|DICT|INTERRES
    75   37  101 1    
    76   38   39 2    
    77   38   40 1    
    78   40   41 1    
    79   40   42 1    
    80   40  102 1    
    81   41  103 1    
    82   41  104 1    
    83   41  105 1    
    84   42   43 am   BACKBONE|DICT|INTERRES
    85   42  106 1    
    86   43   44 2    
    87   43   45 1    
    88   45   46 1    
    89   45   49 1    
    90   45  107 1    
    91   46   47 1    
    92   46  108 1    
    93   46  109 1    
    94   47   48 1    
    95   48  110 1    
    96   48  111 1    
    97   49   50 am   BACKBONE|DICT|INTERRES
    98   49  112 1    
    99   50   51 2    
   100   50   52 1    
   101   52   53 1    
   102   52   54 1    
   103   52  113 1    
   104   53  114 1    
   105   53  115 1    
   106   53  116 1    
   107   54   55 am   BACKBONE|DICT|INTERRES
   108   54  117 1    
   109   55   56 2    
   110   55   57 1    
   111   57   58 1    
   112   57   59 1    
   113   57  118 1    
   114   58  119 1    
   115   58  120 1    
   116   58  121 1    
   117   59   60 am   BACKBONE|DICT|INTERRES
   118   59  122 1    
   119   60   61 2    
   120   60   62 1    
   121   62   63 1    
   122   62   64 1    
   123   62  123 1    
   124   63  124 1    
   125   63  125 1    
   126   63  126 1    
   127   64   65 am   BACKBONE|DICT|INTERRES
   128   64  127 1    
   129   65   66 2    
@<TRIPOS>SUBSTRUCTURE
     1 UNK         1 GROUP             0       ****    0 ROOT    
