@<TRIPOS>MOLECULE
3R134
127   129    1
SMALL
USER_CHARGES


@<TRIPOS>ATOM
      1 CA         31.7199  -45.2749  -48.5275 C.3       0 UNK        -0.1968 
      2 C          32.5859  -46.0983  -49.4690 C.2       0 UNK         0.4852 
      3 O          33.3828  -46.9189  -49.0097 O.2       0 UNK        -0.5359 
      4 N          32.4326  -45.8930  -50.7837 N.am      1 UNK        -0.4300 
      5 CA         33.1717  -46.5846  -51.8474 C.3       1 UNK         0.0863 
      6 C6         33.2800  -45.7265  -53.1354 C.3       11 UNK        -0.0953 
      7 S7         34.1030  -44.1247  -52.8362 S.3       11 UNK        -0.2369 
      8 C8         32.7053  -42.9451  -52.9167 C.3       11 UNK         0.0226 
      9 C9         32.0684  -42.7571  -54.2966 C.ar      11 UNK        -0.0699 
     10 C10        32.7394  -43.0859  -55.4806 C.ar      11 UNK        -0.0804 
     11 C11        32.1351  -42.8887  -56.7240 C.ar      11 UNK        -0.0871 
     12 C12        30.8586  -42.3289  -56.7904 C.ar      11 UNK        -0.1008 
     13 C13        30.1734  -41.9898  -55.6217 C.ar      11 UNK        -0.0735 
     14 C14        30.7828  -42.2078  -54.3807 C.ar      11 UNK        -0.0945 
     15 C15        28.7887  -41.3613  -55.7033 C.3       11 UNK         0.0169 
     16 S16        27.4779  -42.6086  -55.9075 S.3       11 UNK        -0.2669 
     17 C17        27.6534  -43.0537  -57.6720 C.3       11 UNK        -0.0850 
     18 CA         26.3679  -43.6882  -58.2616 C.3       10 UNK         0.0855 
     19 C          26.5345  -43.9725  -59.7766 C.2       10 UNK         0.5543 
     20 N          26.0620  -43.0752  -60.6309 N.am      10 UNK        -0.7343 
     21 O          27.1275  -44.9695  -60.1833 O.2       10 UNK        -0.5027 
     22 N          25.9803  -44.8998  -57.5299 N.am      10 UNK        -0.4495 
     23 C          24.7299  -45.3667  -57.4460 C.2       10 UNK         0.4903 
     24 O          23.7658  -44.8433  -58.0083 O.2       10 UNK        -0.4860 
     25 CA         24.5193  -46.5942  -56.5417 C.3       9 UNK         0.0227 
     26 CB         23.0839  -47.1620  -56.5987 C.3       9 UNK        -0.1964 
     27 N          25.5209  -47.6437  -56.7505 N.am      9 UNK        -0.4231 
     28 C          25.6889  -48.4209  -57.8325 C.2       9 UNK         0.5014 
     29 O          24.9953  -48.3379  -58.8473 O.2       9 UNK        -0.5270 
     30 CA         26.8096  -49.4854  -57.7924 C.3       8 UNK         0.0284 
     31 CB         27.8015  -49.2731  -58.9484 C.3       8 UNK        -0.1977 
     32 N          27.5487  -49.5271  -56.5260 N.am      8 UNK        -0.4342 
     33 C          27.0864  -50.0326  -55.3740 C.2       8 UNK         0.5039 
     34 O          26.0155  -50.6305  -55.2688 O.2       8 UNK        -0.5547 
     35 CA         27.9308  -49.7665  -54.1148 C.3       7 UNK         0.0281 
     36 CB         28.9103  -50.9199  -53.8524 C.3       7 UNK        -0.1963 
     37 N          28.6567  -48.4914  -54.1828 N.am      7 UNK        -0.4444 
     38 C          28.0622  -47.2889  -54.1612 C.2       7 UNK         0.5104 
     39 O          26.8497  -47.1317  -54.0229 O.2       7 UNK        -0.5100 
     40 CA         28.9562  -46.0596  -54.3892 C.3       6 UNK         0.0396 
     41 CB         29.5705  -45.5928  -53.0645 C.3       6 UNK        -0.1801 
     42 N          29.9856  -46.2980  -55.4138 N.am      6 UNK        -0.4747 
     43 C          29.6800  -46.3953  -56.7184 C.2       6 UNK         0.5012 
     44 O          28.5340  -46.2450  -57.1419 O.2       6 UNK        -0.5003 
     45 CA         30.7786  -46.8007  -57.7268 C.3       5 UNK         0.0782 
     46 C46        31.3431  -45.6097  -58.5591 C.3       11 UNK        -0.0868 
     47 S47        33.0437  -45.0818  -58.1310 S.3       11 UNK        -0.2515 
     48 C48        32.8736  -43.2770  -57.9926 C.3       11 UNK         0.0199 
     49 N          31.8202  -47.6855  -57.1968 N.am      5 UNK        -0.4607 
     50 C          31.6267  -48.9005  -56.6766 C.2       4 UNK         0.5031 
     51 O          30.5081  -49.3737  -56.4659 O.2       4 UNK        -0.5119 
     52 CA         32.8824  -49.7331  -56.3738 C.3       4 UNK         0.0263 
     53 CB         34.1079  -48.8910  -55.9604 C.3       4 UNK        -0.1967 
     54 N          32.5734  -50.7000  -55.3272 N.am      4 UNK        -0.4237 
     55 C          33.0934  -51.9277  -55.2102 C.2       3 UNK         0.4908 
     56 O          33.9048  -52.4025  -56.0075 O.2       3 UNK        -0.5102 
     57 CA         32.6216  -52.7687  -54.0020 C.3       3 UNK         0.0241 
     58 CB         33.6520  -53.8387  -53.5800 C.3       3 UNK        -0.1971 
     59 N          32.2054  -51.9572  -52.8474 N.am      3 UNK        -0.4139 
     60 C          32.9580  -51.0779  -52.1685 C.2       2 UNK         0.5016 
     61 O          34.1645  -50.8994  -52.3541 O.2       2 UNK        -0.5319 
     62 CA         32.2266  -50.2466  -51.1019 C.3       2 UNK         0.0286 
     63 CB         32.4339  -50.8533  -49.7051 C.3       2 UNK        -0.1963 
     64 N          32.6827  -48.8564  -51.0934 N.am      2 UNK        -0.4790 
     65 C          32.5594  -47.9810  -52.1005 C.2       1 UNK         0.5024 
     66 O          31.9585  -48.2251  -53.1517 O.2       1 UNK        -0.4888 
     67 H67        32.3483  -44.6861  -47.8597 H         1 UNK         0.0892 
     68 H68        31.0981  -45.9315  -47.9197 H         1 UNK         0.0892 
     69 H69        31.0650  -44.5909  -49.0670 H         1 UNK         0.0892 
     70 H70        31.7531  -45.2173  -51.0969 H         1 UNK         0.3107 
     71 H71        34.1929  -46.7553  -51.4984 H         1 UNK         0.0773 
     72 H72        33.8713  -46.2522  -53.8859 H         1 UNK         0.0680 
     73 H73        32.3060  -45.5581  -53.5908 H         1 UNK         0.0680 
     74 H74        31.9472  -43.2552  -52.1970 H         1 UNK         0.0650 
     75 H75        33.0671  -41.9734  -52.5786 H         1 UNK         0.0650 
     76 H76        33.7355  -43.5034  -55.4503 H         1 UNK         0.1397 
     77 H77        30.3981  -42.1555  -57.7527 H         1 UNK         0.1363 
     78 H78        30.2558  -41.9397  -53.4751 H         1 UNK         0.1355 
     79 H79        28.5853  -40.7932  -54.7943 H         1 UNK         0.0707 
     80 H80        28.7482  -40.6409  -56.5216 H         1 UNK         0.0707 
     81 H81        28.5004  -43.7309  -57.7798 H         1 UNK         0.1034 
     82 H82        27.9094  -42.1528  -58.2325 H         1 UNK         0.1034 
     83 H83        25.5663  -42.9557  -58.1424 H         1 UNK         0.0482 
     84 H84        25.5804  -42.2501  -60.3085 H         1 UNK         0.3460 
     85 H85        26.1757  -43.2338  -61.6200 H         1 UNK         0.3460 
     86 H86        26.7484  -45.4326  -57.1332 H         1 UNK         0.2989 
     87 H87        24.6782  -46.2376  -55.5231 H         1 UNK         0.0559 
     88 H88        22.9671  -48.0141  -55.9291 H         1 UNK         0.0848 
     89 H89        22.8117  -47.4842  -57.6040 H         1 UNK         0.0848 
     90 H90        22.3557  -46.4095  -56.2937 H         1 UNK         0.0848 
     91 H91        26.1587  -47.7744  -55.9746 H         1 UNK         0.3144 
     92 H92        26.3341  -50.4583  -57.9322 H         1 UNK         0.0727 
     93 H93        28.6539  -49.9496  -58.8812 H         1 UNK         0.0790 
     94 H94        28.1756  -48.2504  -58.9697 H         1 UNK         0.0790 
     95 H95        27.3181  -49.4539  -59.9093 H         1 UNK         0.0790 
     96 H96        28.4844  -49.1325  -56.5248 H         1 UNK         0.3215 
     97 H97        27.2428  -49.7119  -53.2680 H         1 UNK         0.0863 
     98 H98        29.4666  -50.7542  -52.9319 H         1 UNK         0.0808 
     99 H99        28.3743  -51.8636  -53.7415 H         1 UNK         0.0808 
    100 H100       29.6214  -51.0473  -54.6680 H         1 UNK         0.0808 
    101 H101       29.6549  -48.5334  -54.3412 H         1 UNK         0.3118 
    102 H102       28.3140  -45.2505  -54.7429 H         1 UNK         0.0546 
    103 H103       28.7879  -45.3386  -52.3483 H         1 UNK         0.0828 
    104 H104       30.1757  -44.7002  -53.2024 H         1 UNK         0.0828 
    105 H105       30.1819  -46.3666  -52.6065 H         1 UNK         0.0828 
    106 H106       30.9339  -46.4680  -55.1110 H         1 UNK         0.3005 
    107 H107       30.2429  -47.4234  -58.4452 H         1 UNK         0.1257 
    108 H108       30.6700  -44.7510  -58.5356 H         1 UNK         0.0775 
    109 H109       31.3763  -45.9026  -59.6097 H         1 UNK         0.0775 
    110 H110       33.8680  -42.8284  -57.9790 H         1 UNK         0.0840 
    111 H111       32.3742  -42.8864  -58.8808 H         1 UNK         0.0840 
    112 H112       32.7647  -47.3480  -57.3186 H         1 UNK         0.2987 
    113 H113       33.1213  -50.2691  -57.2946 H         1 UNK         0.0785 
    114 H114       33.8940  -48.2772  -55.0864 H         1 UNK         0.0798 
    115 H115       34.4371  -48.2306  -56.7631 H         1 UNK         0.0798 
    116 H116       34.9562  -49.5290  -55.7117 H         1 UNK         0.0798 
    117 H117       31.8901  -50.3872  -54.6518 H         1 UNK         0.3079 
    118 H118       31.7269  -53.2935  -54.3404 H         1 UNK         0.0794 
    119 H119       34.6058  -53.3929  -53.2961 H         1 UNK         0.0786 
    120 H120       33.8500  -54.5358  -54.3951 H         1 UNK         0.0786 
    121 H121       33.2914  -54.4257  -52.7353 H         1 UNK         0.0786 
    122 H122       31.2359  -52.0583  -52.5823 H         1 UNK         0.3032 
    123 H123       31.1577  -50.2376  -51.3227 H         1 UNK         0.1094 
    124 H124       33.4880  -50.8647  -49.4240 H         1 UNK         0.0794 
    125 H125       31.8901  -50.2936  -48.9438 H         1 UNK         0.0794 
    126 H126       32.0754  -51.8829  -49.6677 H         1 UNK         0.0794 
    127 H127       33.1511  -48.5312  -50.2537 H         1 UNK         0.3016 
@<TRIPOS>BOND
     1    1    2 1    
     2    1   67 1    
     3    1   68 1    
     4    1   69 1    
     5    2    3 2    
     6    2    4 am   BACKBONE|DICT|INTERRES
     7    4    5 1    
     8    4   70 1    
     9    5    6 1    
    10    5   65 1    
    11    5   71 1    
    12    6    7 1    
    13    6   72 1    
    14    6   73 1    
    15    7    8 1    
    16    8    9 1    
    17    8   74 1    
    18    8   75 1    
    19    9   10 ar   
    20    9   14 ar   
    21   10   11 ar   
    22   10   76 1    
    23   11   12 ar   
    24   11   48 1    
    25   12   13 ar   
    26   12   77 1    
    27   13   14 ar   
    28   13   15 1    
    29   14   78 1    
    30   15   16 1    
    31   15   79 1    
    32   15   80 1    
    33   16   17 1    
    34   17   18 1    
    35   17   81 1    
    36   17   82 1    
    37   18   19 1    
    38   18   22 1    
    39   18   83 1    
    40   19   20 am   BACKBONE|DICT|INTERRES
    41   19   21 2    
    42   20   84 1    
    43   20   85 1    
    44   22   23 am   BACKBONE|DICT|INTERRES
    45   22   86 1    
    46   23   24 2    
    47   23   25 1    
    48   25   26 1    
    49   25   27 1    
    50   25   87 1    
    51   26   88 1    
    52   26   89 1    
    53   26   90 1    
    54   27   28 am   BACKBONE|DICT|INTERRES
    55   27   91 1    
    56   28   29 2    
    57   28   30 1    
    58   30   31 1    
    59   30   32 1    
    60   30   92 1    
    61   31   93 1    
    62   31   94 1    
    63   31   95 1    
    64   32   33 am   BACKBONE|DICT|INTERRES
    65   32   96 1    
    66   33   34 2    
    67   33   35 1    
    68   35   36 1    
    69   35   37 1    
    70   35   97 1    
    71   36   98 1    
    72   36   99 1    
    73   36  100 1    
    74   37   38 am   BACKBONE|DICT|INTERRES
    75   37  101 1    
    76   38   39 2    
    77   38   40 1    
    78   40   41 1    
    79   40   42 1    
    80   40  102 1    
    81   41  103 1    
    82   41  104 1    
    83   41  105 1    
    84   42   43 am   BACKBONE|DICT|INTERRES
    85   42  106 1    
    86   43   44 2    
    87   43   45 1    
    88   45   46 1    
    89   45   49 1    
    90   45  107 1    
    91   46   47 1    
    92   46  108 1    
    93   46  109 1    
    94   47   48 1    
    95   48  110 1    
    96   48  111 1    
    97   49   50 am   BACKBONE|DICT|INTERRES
    98   49  112 1    
    99   50   51 2    
   100   50   52 1    
   101   52   53 1    
   102   52   54 1    
   103   52  113 1    
   104   53  114 1    
   105   53  115 1    
   106   53  116 1    
   107   54   55 am   BACKBONE|DICT|INTERRES
   108   54  117 1    
   109   55   56 2    
   110   55   57 1    
   111   57   58 1    
   112   57   59 1    
   113   57  118 1    
   114   58  119 1    
   115   58  120 1    
   116   58  121 1    
   117   59   60 am   BACKBONE|DICT|INTERRES
   118   59  122 1    
   119   60   61 2    
   120   60   62 1    
   121   62   63 1    
   122   62   64 1    
   123   62  123 1    
   124   63  124 1    
   125   63  125 1    
   126   63  126 1    
   127   64   65 am   BACKBONE|DICT|INTERRES
   128   64  127 1    
   129   65   66 2    
@<TRIPOS>SUBSTRUCTURE
     1 UNK         1 GROUP             0       ****    0 ROOT    
