@<TRIPOS>MOLECULE
3R134
127   129    1
SMALL
USER_CHARGES


@<TRIPOS>ATOM
      1 CA         38.4996  -46.6228  -55.0752 C.3       0 UNK        -0.1968 
      2 C          38.0920  -45.9068  -53.7899 C.2       0 UNK         0.4852 
      3 O          38.9538  -45.6219  -52.9599 O.2       0 UNK        -0.5359 
      4 N          36.8060  -45.5912  -53.5751 N.am      1 UNK        -0.4300 
      5 CA         35.6567  -45.8974  -54.4382 C.3       1 UNK         0.0863 
      6 C6         34.4487  -44.9810  -54.1111 C.3       11 UNK        -0.0953 
      7 S7         33.7956  -45.1877  -52.4151 S.3       11 UNK        -0.2369 
      8 C8         33.1150  -43.5384  -52.0792 C.3       11 UNK         0.0226 
      9 C9         31.7332  -43.3595  -52.6899 C.ar      11 UNK        -0.0699 
     10 C10        30.5950  -43.6846  -51.9465 C.ar      11 UNK        -0.0804 
     11 C11        29.3175  -43.4472  -52.4615 C.ar      11 UNK        -0.0871 
     12 C12        29.1841  -42.8916  -53.7383 C.ar      11 UNK        -0.1008 
     13 C13        30.3144  -42.5867  -54.5029 C.ar      11 UNK        -0.0735 
     14 C14        31.5871  -42.8241  -53.9730 C.ar      11 UNK        -0.0945 
     15 C15        30.1660  -41.9584  -55.8820 C.3       11 UNK         0.0169 
     16 S16        29.8410  -43.2045  -57.1683 S.3       11 UNK        -0.2669 
     17 C17        28.0306  -43.4220  -57.0370 C.3       11 UNK        -0.0850 
     18 CA         27.3475  -43.8562  -58.3626 C.3       10 UNK         0.0855 
     19 C          27.4788  -42.7755  -59.4780 C.2       10 UNK         0.5543 
     20 N          26.6856  -41.7149  -59.4022 N.am      10 UNK        -0.7343 
     21 O          28.3038  -42.8706  -60.3853 O.2       10 UNK        -0.5027 
     22 N          27.7688  -45.2092  -58.7594 N.am      10 UNK        -0.4495 
     23 C          27.2643  -45.9141  -59.7814 C.2       10 UNK         0.4903 
     24 O          26.3551  -45.5206  -60.5128 O.2       10 UNK        -0.4860 
     25 CA         27.8265  -47.3293  -59.9802 C.3       9 UNK         0.0227 
     26 CB         29.3621  -47.3924  -59.8749 C.3       9 UNK        -0.1964 
     27 N          27.2186  -48.2119  -58.9867 N.am      9 UNK        -0.4231 
     28 C          26.0500  -48.8472  -59.1535 C.2       9 UNK         0.5014 
     29 O          25.4404  -48.8850  -60.2246 O.2       9 UNK        -0.5270 
     30 CA         25.4406  -49.5221  -57.9096 C.3       8 UNK         0.0284 
     31 CB         24.3636  -50.5747  -58.2517 C.3       8 UNK        -0.1977 
     32 N          26.4393  -50.0678  -56.9857 N.am      8 UNK        -0.4342 
     33 C          27.2915  -51.0835  -57.1939 C.2       8 UNK         0.5039 
     34 O          27.3630  -51.7136  -58.2499 O.2       8 UNK        -0.5547 
     35 CA         28.2347  -51.4705  -56.0341 C.3       7 UNK         0.0281 
     36 CB         29.6979  -51.2003  -56.4207 C.3       7 UNK        -0.1963 
     37 N          27.9396  -50.7771  -54.7761 N.am      7 UNK        -0.4444 
     38 C          26.8788  -51.0108  -53.9909 C.2       7 UNK         0.5104 
     39 O          26.0691  -51.9182  -54.1808 O.2       7 UNK        -0.5100 
     40 CA         26.6522  -50.0209  -52.8356 C.3       6 UNK         0.0396 
     41 CB         27.3823  -50.4873  -51.5669 C.3       6 UNK        -0.1801 
     42 N          27.0713  -48.6575  -53.1836 N.am      6 UNK        -0.4747 
     43 C          26.4327  -47.8673  -54.0600 C.2       6 UNK         0.5012 
     44 O          25.4067  -48.2039  -54.6508 O.2       6 UNK        -0.5003 
     45 CA         27.0637  -46.4952  -54.3747 C.3       5 UNK         0.0782 
     46 C46        26.6267  -45.4124  -53.3578 C.3       11 UNK        -0.0868 
     47 S47        27.5310  -45.4644  -51.7688 S.3       11 UNK        -0.2515 
     48 C48        28.0906  -43.7394  -51.6085 C.3       11 UNK         0.0199 
     49 N          28.5189  -46.5754  -54.5338 N.am      5 UNK        -0.4607 
     50 C          29.1301  -47.1870  -55.5554 C.2       4 UNK         0.5031 
     51 O          28.5268  -47.6454  -56.5260 O.2       4 UNK        -0.5119 
     52 CA         30.6595  -47.3481  -55.4791 C.3       4 UNK         0.0263 
     53 CB         31.3687  -46.2061  -56.2155 C.3       4 UNK        -0.1967 
     54 N          31.2067  -47.4635  -54.1231 N.am      4 UNK        -0.4237 
     55 C          30.8771  -48.4136  -53.2377 C.2       3 UNK         0.4908 
     56 O          30.0037  -49.2583  -53.4377 O.2       3 UNK        -0.5102 
     57 CA         31.6781  -48.4154  -51.9235 C.3       3 UNK         0.0241 
     58 CB         31.1584  -49.4433  -50.8968 C.3       3 UNK        -0.1971 
     59 N          33.1146  -48.5948  -52.1688 N.am      3 UNK        -0.4139 
     60 C          33.7267  -49.6286  -52.7723 C.2       2 UNK         0.5016 
     61 O          33.1541  -50.6515  -53.1514 O.2       2 UNK        -0.5319 
     62 CA         35.2482  -49.4751  -52.9879 C.3       2 UNK         0.0286 
     63 CB         35.8210  -50.4778  -54.0133 C.3       2 UNK        -0.1963 
     64 N          35.6340  -48.0971  -53.3269 N.am      2 UNK        -0.4790 
     65 C          35.2448  -47.3860  -54.3995 C.2       1 UNK         0.5024 
     66 O          34.5666  -47.8407  -55.3196 O.2       1 UNK        -0.4888 
     67 H67        38.0767  -47.6258  -55.1161 H         1 UNK         0.0892 
     68 H68        38.1790  -46.0663  -55.9550 H         1 UNK         0.0892 
     69 H69        39.5838  -46.7207  -55.1281 H         1 UNK         0.0892 
     70 H70        36.5706  -45.1059  -52.7206 H         1 UNK         0.3107 
     71 H71        35.9427  -45.6820  -55.4691 H         1 UNK         0.0773 
     72 H72        34.7458  -43.9409  -54.2530 H         1 UNK         0.0680 
     73 H73        33.6363  -45.1467  -54.8177 H         1 UNK         0.0680 
     74 H74        33.7981  -42.7678  -52.4394 H         1 UNK         0.0650 
     75 H75        33.0574  -43.4034  -50.9981 H         1 UNK         0.0650 
     76 H76        30.7042  -44.0968  -50.9524 H         1 UNK         0.1397 
     77 H77        28.2017  -42.6792  -54.1346 H         1 UNK         0.1363 
     78 H78        32.4655  -42.5715  -54.5509 H         1 UNK         0.1355 
     79 H79        29.3762  -41.2060  -55.8736 H         1 UNK         0.0707 
     80 H80        31.0805  -41.4253  -56.1463 H         1 UNK         0.0707 
     81 H81        27.8337  -44.1593  -56.2587 H         1 UNK         0.1034 
     82 H82        27.5798  -42.4944  -56.6805 H         1 UNK         0.1034 
     83 H83        26.2797  -43.9441  -58.1517 H         1 UNK         0.0482 
     84 H84        26.7616  -40.9974  -60.1063 H         1 UNK         0.3460 
     85 H85        26.0056  -41.6198  -58.6642 H         1 UNK         0.3460 
     86 H86        28.5177  -45.6130  -58.2177 H         1 UNK         0.2989 
     87 H87        27.5557  -47.6575  -60.9861 H         1 UNK         0.0559 
     88 H88        29.8300  -46.6719  -60.5472 H         1 UNK         0.0848 
     89 H89        29.7296  -48.3799  -60.1545 H         1 UNK         0.0848 
     90 H90        29.7222  -47.1857  -58.8687 H         1 UNK         0.0848 
     91 H91        27.6346  -48.1909  -58.0569 H         1 UNK         0.3144 
     92 H92        24.9421  -48.7216  -57.3614 H         1 UNK         0.0727 
     93 H93        23.9423  -51.0181  -57.3494 H         1 UNK         0.0790 
     94 H94        24.7649  -51.3806  -58.8668 H         1 UNK         0.0790 
     95 H95        23.5385  -50.1249  -58.8053 H         1 UNK         0.0790 
     96 H96        26.4764  -49.6099  -56.0840 H         1 UNK         0.3215 
     97 H97        28.1175  -52.5426  -55.8625 H         1 UNK         0.0863 
     98 H98        29.8442  -50.1640  -56.7223 H         1 UNK         0.0808 
     99 H99        29.9989  -51.8255  -57.2622 H         1 UNK         0.0808 
    100 H100       30.3794  -51.4132  -55.5964 H         1 UNK         0.0808 
    101 H101       28.6008  -50.0645  -54.4746 H         1 UNK         0.3118 
    102 H102       25.5820  -49.9984  -52.6190 H         1 UNK         0.0546 
    103 H103       27.2405  -49.7874  -50.7434 H         1 UNK         0.0828 
    104 H104       28.4531  -50.6012  -51.7342 H         1 UNK         0.0828 
    105 H105       27.0039  -51.4559  -51.2380 H         1 UNK         0.0828 
    106 H106       27.9466  -48.3370  -52.7922 H         1 UNK         0.3005 
    107 H107       26.6525  -46.2022  -55.3440 H         1 UNK         0.1257 
    108 H108       25.5571  -45.4818  -53.1489 H         1 UNK         0.0775 
    109 H109       26.7575  -44.4322  -53.8138 H         1 UNK         0.0775 
    110 H110       27.2749  -43.0595  -51.8596 H         1 UNK         0.0840 
    111 H111       28.3229  -43.5475  -50.5598 H         1 UNK         0.0840 
    112 H112       29.0731  -46.2026  -53.7762 H         1 UNK         0.2987 
    113 H113       30.9057  -48.2747  -55.9987 H         1 UNK         0.0785 
    114 H114       30.9342  -46.0356  -57.2002 H         1 UNK         0.0798 
    115 H115       32.4223  -46.4345  -56.3726 H         1 UNK         0.0798 
    116 H116       31.3017  -45.2706  -55.6603 H         1 UNK         0.0798 
    117 H117       31.9389  -46.8130  -53.8776 H         1 UNK         0.3079 
    118 H118       31.5577  -47.4241  -51.4832 H         1 UNK         0.0794 
    119 H119       30.1265  -49.2253  -50.6207 H         1 UNK         0.0786 
    120 H120       31.7486  -49.4221  -49.9808 H         1 UNK         0.0786 
    121 H121       31.1841  -50.4608  -51.2886 H         1 UNK         0.0786 
    122 H122       33.6937  -47.8047  -51.9190 H         1 UNK         0.3032 
    123 H123       35.7083  -49.6977  -52.0235 H         1 UNK         0.1094 
    124 H124       35.3509  -50.3732  -54.9916 H         1 UNK         0.0794 
    125 H125       36.8953  -50.3456  -54.1407 H         1 UNK         0.0794 
    126 H126       35.6589  -51.5055  -53.6859 H         1 UNK         0.0794 
    127 H127       36.1903  -47.6160  -52.6327 H         1 UNK         0.3016 
@<TRIPOS>BOND
     1    1    2 1    
     2    1   67 1    
     3    1   68 1    
     4    1   69 1    
     5    2    3 2    
     6    2    4 am   BACKBONE|DICT|INTERRES
     7    4    5 1    
     8    4   70 1    
     9    5    6 1    
    10    5   65 1    
    11    5   71 1    
    12    6    7 1    
    13    6   72 1    
    14    6   73 1    
    15    7    8 1    
    16    8    9 1    
    17    8   74 1    
    18    8   75 1    
    19    9   10 ar   
    20    9   14 ar   
    21   10   11 ar   
    22   10   76 1    
    23   11   12 ar   
    24   11   48 1    
    25   12   13 ar   
    26   12   77 1    
    27   13   14 ar   
    28   13   15 1    
    29   14   78 1    
    30   15   16 1    
    31   15   79 1    
    32   15   80 1    
    33   16   17 1    
    34   17   18 1    
    35   17   81 1    
    36   17   82 1    
    37   18   19 1    
    38   18   22 1    
    39   18   83 1    
    40   19   20 am   BACKBONE|DICT|INTERRES
    41   19   21 2    
    42   20   84 1    
    43   20   85 1    
    44   22   23 am   BACKBONE|DICT|INTERRES
    45   22   86 1    
    46   23   24 2    
    47   23   25 1    
    48   25   26 1    
    49   25   27 1    
    50   25   87 1    
    51   26   88 1    
    52   26   89 1    
    53   26   90 1    
    54   27   28 am   BACKBONE|DICT|INTERRES
    55   27   91 1    
    56   28   29 2    
    57   28   30 1    
    58   30   31 1    
    59   30   32 1    
    60   30   92 1    
    61   31   93 1    
    62   31   94 1    
    63   31   95 1    
    64   32   33 am   BACKBONE|DICT|INTERRES
    65   32   96 1    
    66   33   34 2    
    67   33   35 1    
    68   35   36 1    
    69   35   37 1    
    70   35   97 1    
    71   36   98 1    
    72   36   99 1    
    73   36  100 1    
    74   37   38 am   BACKBONE|DICT|INTERRES
    75   37  101 1    
    76   38   39 2    
    77   38   40 1    
    78   40   41 1    
    79   40   42 1    
    80   40  102 1    
    81   41  103 1    
    82   41  104 1    
    83   41  105 1    
    84   42   43 am   BACKBONE|DICT|INTERRES
    85   42  106 1    
    86   43   44 2    
    87   43   45 1    
    88   45   46 1    
    89   45   49 1    
    90   45  107 1    
    91   46   47 1    
    92   46  108 1    
    93   46  109 1    
    94   47   48 1    
    95   48  110 1    
    96   48  111 1    
    97   49   50 am   BACKBONE|DICT|INTERRES
    98   49  112 1    
    99   50   51 2    
   100   50   52 1    
   101   52   53 1    
   102   52   54 1    
   103   52  113 1    
   104   53  114 1    
   105   53  115 1    
   106   53  116 1    
   107   54   55 am   BACKBONE|DICT|INTERRES
   108   54  117 1    
   109   55   56 2    
   110   55   57 1    
   111   57   58 1    
   112   57   59 1    
   113   57  118 1    
   114   58  119 1    
   115   58  120 1    
   116   58  121 1    
   117   59   60 am   BACKBONE|DICT|INTERRES
   118   59  122 1    
   119   60   61 2    
   120   60   62 1    
   121   62   63 1    
   122   62   64 1    
   123   62  123 1    
   124   63  124 1    
   125   63  125 1    
   126   63  126 1    
   127   64   65 am   BACKBONE|DICT|INTERRES
   128   64  127 1    
   129   65   66 2    
@<TRIPOS>SUBSTRUCTURE
     1 UNK         1 GROUP             0       ****    0 ROOT    
