@<TRIPOS>MOLECULE
3R134
127   129    1
SMALL
USER_CHARGES


@<TRIPOS>ATOM
      1 CA         36.3463  -46.7893  -50.0208 C.3       0 UNK        -0.1968 
      2 C          35.0967  -46.7883  -50.8881 C.2       0 UNK         0.4852 
      3 O          34.7759  -47.8077  -51.5027 O.2       0 UNK        -0.5359 
      4 N          34.3768  -45.6591  -50.9344 N.am      1 UNK        -0.4300 
      5 CA         33.1589  -45.4437  -51.7286 C.3       1 UNK         0.0863 
      6 C6         32.9180  -43.9395  -52.0152 C.3       11 UNK        -0.0953 
      7 S7         34.2822  -43.2122  -52.9844 S.3       11 UNK        -0.2369 
      8 C8         33.4092  -42.0005  -54.0253 C.3       11 UNK         0.0226 
      9 C9         32.5477  -42.6541  -55.0981 C.ar      11 UNK        -0.0699 
     10 C10        33.1433  -43.3065  -56.1815 C.ar      11 UNK        -0.0804 
     11 C11        32.3590  -43.8638  -57.1966 C.ar      11 UNK        -0.0871 
     12 C12        30.9648  -43.7789  -57.1127 C.ar      11 UNK        -0.1008 
     13 C13        30.3551  -43.1236  -56.0356 C.ar      11 UNK        -0.0735 
     14 C14        31.1546  -42.5627  -55.0345 C.ar      11 UNK        -0.0945 
     15 C15        28.8394  -42.9711  -55.9721 C.3       11 UNK         0.0169 
     16 S16        28.1357  -43.7401  -54.4797 S.3       11 UNK        -0.2669 
     17 C17        26.3541  -43.4003  -54.6830 C.3       11 UNK        -0.0850 
     18 CA         25.5371  -44.6798  -55.0450 C.3       10 UNK         0.0855 
     19 C          23.9926  -44.5085  -54.8870 C.2       10 UNK         0.5543 
     20 N          23.5295  -43.8063  -53.8607 N.am      10 UNK        -0.7343 
     21 O          23.1957  -45.0511  -55.6507 O.2       10 UNK        -0.5027 
     22 N          25.9353  -45.2574  -56.3427 N.am      10 UNK        -0.4495 
     23 C          25.7524  -44.6898  -57.5437 C.2       10 UNK         0.4903 
     24 O          25.2566  -43.5737  -57.7055 O.2       10 UNK        -0.4860 
     25 CA         26.2139  -45.4664  -58.7885 C.3       9 UNK         0.0227 
     26 CB         27.4796  -44.8275  -59.3837 C.3       9 UNK        -0.1964 
     27 N          26.4740  -46.8881  -58.5510 N.am      9 UNK        -0.4231 
     28 C          25.5450  -47.8519  -58.6083 C.2       9 UNK         0.5014 
     29 O          24.3412  -47.6370  -58.7536 O.2       9 UNK        -0.5270 
     30 CA         26.0438  -49.3020  -58.5224 C.3       8 UNK         0.0284 
     31 CB         26.7648  -49.7050  -59.8207 C.3       8 UNK        -0.1977 
     32 N          26.9474  -49.4964  -57.3896 N.am      8 UNK        -0.4342 
     33 C          26.5935  -50.0303  -56.2121 C.2       8 UNK         0.5039 
     34 O          25.4592  -50.4361  -55.9556 O.2       8 UNK        -0.5547 
     35 CA         27.6846  -50.1366  -55.1297 C.3       7 UNK         0.0281 
     36 CB         28.2792  -51.5532  -55.0924 C.3       7 UNK        -0.1963 
     37 N          28.7560  -49.1536  -55.3100 N.am      7 UNK        -0.4444 
     38 C          28.6037  -47.8451  -55.0614 C.2       7 UNK         0.5104 
     39 O          27.5807  -47.3660  -54.5761 O.2       7 UNK        -0.5100 
     40 CA         29.7515  -46.9044  -55.4608 C.3       6 UNK         0.0396 
     41 CB         30.5739  -46.4859  -54.2370 C.3       6 UNK        -0.1801 
     42 N          30.6434  -47.4588  -56.4776 N.am      6 UNK        -0.4747 
     43 C          30.3001  -47.6520  -57.7578 C.2       6 UNK         0.5012 
     44 O          29.1653  -47.4583  -58.1939 O.2       6 UNK        -0.5003 
     45 CA         31.3852  -48.2127  -58.6955 C.3       5 UNK         0.0782 
     46 C46        32.2323  -47.0800  -59.3276 C.3       11 UNK        -0.0868 
     47 S47        33.3919  -46.2636  -58.1664 S.3       11 UNK        -0.2515 
     48 C48        33.0283  -44.4942  -58.4111 C.3       11 UNK         0.0199 
     49 N          32.2145  -49.2412  -58.0587 N.am      5 UNK        -0.4607 
     50 C          31.7564  -50.3850  -57.5340 C.2       4 UNK         0.5031 
     51 O          30.5699  -50.7141  -57.5543 O.2       4 UNK        -0.5119 
     52 CA         32.7709  -51.3123  -56.8397 C.3       4 UNK         0.0263 
     53 CB         34.2478  -50.8849  -57.0116 C.3       4 UNK        -0.1967 
     54 N          32.4439  -51.4871  -55.4191 N.am      4 UNK        -0.4237 
     55 C          32.3571  -50.5207  -54.4937 C.2       3 UNK         0.4908 
     56 O          32.5453  -49.3219  -54.7232 O.2       3 UNK        -0.5102 
     57 CA         32.0084  -50.9752  -53.0701 C.3       3 UNK         0.0241 
     58 CB         33.1358  -51.8280  -52.4567 C.3       3 UNK        -0.1971 
     59 N          31.7945  -49.7905  -52.2472 N.am      3 UNK        -0.4139 
     60 C          31.0189  -49.7043  -51.1599 C.2       2 UNK         0.5016 
     61 O          30.3607  -50.6483  -50.7204 O.2       2 UNK        -0.5319 
     62 CA         30.9772  -48.3475  -50.4303 C.3       2 UNK         0.0286 
     63 CB         31.0990  -48.5078  -48.9032 C.3       2 UNK        -0.1963 
     64 N          32.0325  -47.4525  -50.9084 N.am      2 UNK        -0.4790 
     65 C          31.9310  -46.1327  -51.0886 C.2       1 UNK         0.5024 
     66 O          30.9319  -45.4802  -50.7831 O.2       1 UNK        -0.4888 
     67 H67        37.2224  -47.0173  -50.6273 H         1 UNK         0.0892 
     68 H68        36.5093  -45.8256  -49.5385 H         1 UNK         0.0892 
     69 H69        36.2625  -47.5484  -49.2436 H         1 UNK         0.0892 
     70 H70        34.6816  -44.8610  -50.3955 H         1 UNK         0.3107 
     71 H71        33.3021  -45.9309  -52.6961 H         1 UNK         0.0773 
     72 H72        31.9868  -43.8072  -52.5685 H         1 UNK         0.0680 
     73 H73        32.8070  -43.3768  -51.0867 H         1 UNK         0.0680 
     74 H74        32.8114  -41.3477  -53.3871 H         1 UNK         0.0650 
     75 H75        34.1484  -41.3596  -54.5077 H         1 UNK         0.0650 
     76 H76        34.2218  -43.3630  -56.2421 H         1 UNK         0.1397 
     77 H77        30.3595  -44.2029  -57.9005 H         1 UNK         0.1363 
     78 H78        30.6859  -42.0461  -54.2080 H         1 UNK         0.1355 
     79 H79        28.3708  -43.4100  -56.8522 H         1 UNK         0.0707 
     80 H80        28.5889  -41.9095  -55.9826 H         1 UNK         0.0707 
     81 H81        26.1988  -42.6128  -55.4216 H         1 UNK         0.1034 
     82 H82        26.0230  -42.9801  -53.7332 H         1 UNK         0.1034 
     83 H83        25.7886  -45.4432  -54.3091 H         1 UNK         0.0482 
     84 H84        24.1487  -43.3823  -53.1887 H         1 UNK         0.3460 
     85 H85        22.5320  -43.7133  -53.7470 H         1 UNK         0.3460 
     86 H86        26.3420  -46.1804  -56.2951 H         1 UNK         0.2989 
     87 H87        25.4192  -45.3751  -59.5321 H         1 UNK         0.0559 
     88 H88        28.3306  -44.9270  -58.7119 H         1 UNK         0.0848 
     89 H89        27.3341  -43.7634  -59.5753 H         1 UNK         0.0848 
     90 H90        27.7490  -45.2928  -60.3319 H         1 UNK         0.0848 
     91 H91        27.4531  -47.1483  -58.4321 H         1 UNK         0.3144 
     92 H92        25.1693  -49.9481  -58.4178 H         1 UNK         0.0727 
     93 H93        27.6654  -49.1134  -59.9905 H         1 UNK         0.0790 
     94 H94        26.1154  -49.5672  -60.6864 H         1 UNK         0.0790 
     95 H95        27.0562  -50.7552  -59.7992 H         1 UNK         0.0790 
     96 H96        27.8981  -49.1694  -57.5046 H         1 UNK         0.3215 
     97 H97        27.2066  -49.9488  -54.1654 H         1 UNK         0.0863 
     98 H98        28.7572  -51.8202  -56.0348 H         1 UNK         0.0808 
     99 H99        27.5009  -52.2943  -54.9050 H         1 UNK         0.0808 
    100 H100       29.0161  -51.6541  -54.2970 H         1 UNK         0.0808 
    101 H101       29.6113  -49.4709  -55.7479 H         1 UNK         0.3118 
    102 H102       29.2951  -46.0088  -55.8844 H         1 UNK         0.0546 
    103 H103       31.3299  -45.7468  -54.5040 H         1 UNK         0.0828 
    104 H104       31.0747  -47.3374  -53.7800 H         1 UNK         0.0828 
    105 H105       29.9353  -46.0337  -53.4771 H         1 UNK         0.0828 
    106 H106       31.5827  -47.6990  -56.1845 H         1 UNK         0.3005 
    107 H107       30.8485  -48.7089  -59.5076 H         1 UNK         0.1257 
    108 H108       31.5772  -46.3438  -59.7965 H         1 UNK         0.0775 
    109 H109       32.8284  -47.4918  -60.1434 H         1 UNK         0.0775 
    110 H110       33.9692  -43.9799  -58.6132 H         1 UNK         0.0840 
    111 H111       32.4185  -44.3359  -59.3010 H         1 UNK         0.0840 
    112 H112       33.1959  -49.0226  -57.9651 H         1 UNK         0.2987 
    113 H113       32.6546  -52.2903  -57.3090 H         1 UNK         0.0785 
    114 H114       34.9177  -51.6126  -56.5535 H         1 UNK         0.0798 
    115 H115       34.5215  -50.8233  -58.0658 H         1 UNK         0.0798 
    116 H116       34.4579  -49.9170  -56.5547 H         1 UNK         0.0798 
    117 H117       32.2392  -52.4361  -55.1383 H         1 UNK         0.3079 
    118 H118       31.0872  -51.5588  -53.1134 H         1 UNK         0.0794 
    119 H119       32.8890  -52.1393  -51.4415 H         1 UNK         0.0786 
    120 H120       34.0768  -51.2774  -52.4162 H         1 UNK         0.0786 
    121 H121       33.3112  -52.7355  -53.0352 H         1 UNK         0.0786 
    122 H122       32.2488  -48.9617  -52.6093 H         1 UNK         0.3032 
    123 H123       30.0020  -47.9111  -50.6587 H         1 UNK         0.1094 
    124 H124       31.0281  -47.5450  -48.3970 H         1 UNK         0.0794 
    125 H125       30.3015  -49.1380  -48.5074 H         1 UNK         0.0794 
    126 H126       32.0486  -48.9652  -48.6232 H         1 UNK         0.0794 
    127 H127       32.9327  -47.8781  -51.1255 H         1 UNK         0.3016 
@<TRIPOS>BOND
     1    1    2 1    
     2    1   67 1    
     3    1   68 1    
     4    1   69 1    
     5    2    3 2    
     6    2    4 am   BACKBONE|DICT|INTERRES
     7    4    5 1    
     8    4   70 1    
     9    5    6 1    
    10    5   65 1    
    11    5   71 1    
    12    6    7 1    
    13    6   72 1    
    14    6   73 1    
    15    7    8 1    
    16    8    9 1    
    17    8   74 1    
    18    8   75 1    
    19    9   10 ar   
    20    9   14 ar   
    21   10   11 ar   
    22   10   76 1    
    23   11   12 ar   
    24   11   48 1    
    25   12   13 ar   
    26   12   77 1    
    27   13   14 ar   
    28   13   15 1    
    29   14   78 1    
    30   15   16 1    
    31   15   79 1    
    32   15   80 1    
    33   16   17 1    
    34   17   18 1    
    35   17   81 1    
    36   17   82 1    
    37   18   19 1    
    38   18   22 1    
    39   18   83 1    
    40   19   20 am   BACKBONE|DICT|INTERRES
    41   19   21 2    
    42   20   84 1    
    43   20   85 1    
    44   22   23 am   BACKBONE|DICT|INTERRES
    45   22   86 1    
    46   23   24 2    
    47   23   25 1    
    48   25   26 1    
    49   25   27 1    
    50   25   87 1    
    51   26   88 1    
    52   26   89 1    
    53   26   90 1    
    54   27   28 am   BACKBONE|DICT|INTERRES
    55   27   91 1    
    56   28   29 2    
    57   28   30 1    
    58   30   31 1    
    59   30   32 1    
    60   30   92 1    
    61   31   93 1    
    62   31   94 1    
    63   31   95 1    
    64   32   33 am   BACKBONE|DICT|INTERRES
    65   32   96 1    
    66   33   34 2    
    67   33   35 1    
    68   35   36 1    
    69   35   37 1    
    70   35   97 1    
    71   36   98 1    
    72   36   99 1    
    73   36  100 1    
    74   37   38 am   BACKBONE|DICT|INTERRES
    75   37  101 1    
    76   38   39 2    
    77   38   40 1    
    78   40   41 1    
    79   40   42 1    
    80   40  102 1    
    81   41  103 1    
    82   41  104 1    
    83   41  105 1    
    84   42   43 am   BACKBONE|DICT|INTERRES
    85   42  106 1    
    86   43   44 2    
    87   43   45 1    
    88   45   46 1    
    89   45   49 1    
    90   45  107 1    
    91   46   47 1    
    92   46  108 1    
    93   46  109 1    
    94   47   48 1    
    95   48  110 1    
    96   48  111 1    
    97   49   50 am   BACKBONE|DICT|INTERRES
    98   49  112 1    
    99   50   51 2    
   100   50   52 1    
   101   52   53 1    
   102   52   54 1    
   103   52  113 1    
   104   53  114 1    
   105   53  115 1    
   106   53  116 1    
   107   54   55 am   BACKBONE|DICT|INTERRES
   108   54  117 1    
   109   55   56 2    
   110   55   57 1    
   111   57   58 1    
   112   57   59 1    
   113   57  118 1    
   114   58  119 1    
   115   58  120 1    
   116   58  121 1    
   117   59   60 am   BACKBONE|DICT|INTERRES
   118   59  122 1    
   119   60   61 2    
   120   60   62 1    
   121   62   63 1    
   122   62   64 1    
   123   62  123 1    
   124   63  124 1    
   125   63  125 1    
   126   63  126 1    
   127   64   65 am   BACKBONE|DICT|INTERRES
   128   64  127 1    
   129   65   66 2    
@<TRIPOS>SUBSTRUCTURE
     1 UNK         1 GROUP             0       ****    0 ROOT    
