@<TRIPOS>MOLECULE
3R134
127   129    1
SMALL
USER_CHARGES


@<TRIPOS>ATOM
      1 CA         39.3795  -48.7376  -56.3905 C.3       0 UNK        -0.1968 
      2 C          37.8931  -48.8388  -56.0804 C.2       0 UNK         0.4852 
      3 O          37.4006  -49.9354  -55.8121 O.2       0 UNK        -0.5359 
      4 N          37.1785  -47.7053  -56.1227 N.am      1 UNK        -0.4300 
      5 CA         35.7473  -47.5972  -55.8175 C.3       1 UNK         0.0863 
      6 C6         35.1883  -46.2294  -56.2824 C.3       11 UNK        -0.0953 
      7 S7         33.3742  -46.0820  -56.1474 S.3       11 UNK        -0.2369 
      8 C8         33.2452  -44.6907  -54.9805 C.3       11 UNK         0.0226 
      9 C9         31.7980  -44.3055  -54.7139 C.ar      11 UNK        -0.0699 
     10 C10        31.2538  -44.4378  -53.4335 C.ar      11 UNK        -0.0804 
     11 C11        29.9259  -44.0742  -53.1893 C.ar      11 UNK        -0.0871 
     12 C12        29.1396  -43.5881  -54.2375 C.ar      11 UNK        -0.1008 
     13 C13        29.6746  -43.4366  -55.5227 C.ar      11 UNK        -0.0735 
     14 C14        31.0074  -43.7939  -55.7473 C.ar      11 UNK        -0.0945 
     15 C15        28.8340  -42.9397  -56.6975 C.3       11 UNK         0.0169 
     16 S16        27.5244  -41.7501  -56.2412 S.3       11 UNK        -0.2669 
     17 C17        26.0979  -42.5165  -57.0772 C.3       11 UNK        -0.0850 
     18 CA         25.4957  -43.7054  -56.2589 C.3       10 UNK         0.0855 
     19 C          24.1400  -43.3678  -55.5677 C.2       10 UNK         0.5543 
     20 N          23.2033  -44.3026  -55.4628 N.am      10 UNK        -0.7343 
     21 O          23.9428  -42.2538  -55.0889 O.2       10 UNK        -0.5027 
     22 N          25.5174  -44.9729  -57.0069 N.am      10 UNK        -0.4495 
     23 C          24.9077  -45.2165  -58.1744 C.2       10 UNK         0.4903 
     24 O          24.2094  -44.3933  -58.7686 O.2       10 UNK        -0.4860 
     25 CA         25.1273  -46.6192  -58.7738 C.3       9 UNK         0.0227 
     26 CB         24.6970  -46.7209  -60.2523 C.3       9 UNK        -0.1964 
     27 N          26.4994  -47.1091  -58.5939 N.am      9 UNK        -0.4231 
     28 C          27.6394  -46.5728  -59.0601 C.2       9 UNK         0.5014 
     29 O          27.6873  -45.5551  -59.7523 O.2       9 UNK        -0.5270 
     30 CA         28.9615  -47.2787  -58.6896 C.3       8 UNK         0.0284 
     31 CB         29.7922  -46.4083  -57.7350 C.3       8 UNK        -0.1977 
     32 N          28.7794  -48.5962  -58.0762 N.am      8 UNK        -0.4342 
     33 C          28.3807  -49.7000  -58.7226 C.2       8 UNK         0.5039 
     34 O          28.2027  -49.7597  -59.9394 O.2       8 UNK        -0.5547 
     35 CA         28.0807  -50.9285  -57.8500 C.3       7 UNK         0.0281 
     36 CB         29.3641  -51.7278  -57.5763 C.3       7 UNK        -0.1963 
     37 N          27.4437  -50.5538  -56.5827 N.am      7 UNK        -0.4444 
     38 C          26.1823  -50.1103  -56.4748 C.2       7 UNK         0.5104 
     39 O          25.4107  -50.0033  -57.4271 O.2       7 UNK        -0.5100 
     40 CA         25.7115  -49.6763  -55.0771 C.3       6 UNK         0.0396 
     41 CB         25.2183  -50.8883  -54.2716 C.3       6 UNK        -0.1801 
     42 N          26.7514  -48.9747  -54.3223 N.am      6 UNK        -0.4747 
     43 C          27.2044  -47.7449  -54.6087 C.2       6 UNK         0.5012 
     44 O          26.7724  -47.0515  -55.5297 O.2       6 UNK        -0.5003 
     45 CA         28.3520  -47.2134  -53.7307 C.3       5 UNK         0.0782 
     46 C46        27.7834  -46.4650  -52.4968 C.3       11 UNK        -0.0868 
     47 S47        29.0699  -45.9289  -51.3148 S.3       11 UNK        -0.2515 
     48 C48        29.3407  -44.1960  -51.7907 C.3       11 UNK         0.0199 
     49 N          29.3117  -48.2565  -53.3547 N.am      5 UNK        -0.4607 
     50 C          30.0641  -48.9799  -54.1917 C.2       4 UNK         0.5031 
     51 O          29.9265  -48.9576  -55.4164 O.2       4 UNK        -0.5119 
     52 CA         31.1475  -49.8650  -53.5396 C.3       4 UNK         0.0263 
     53 CB         32.0330  -50.5749  -54.5796 C.3       4 UNK        -0.1967 
     54 N          32.0005  -49.0963  -52.6215 N.am      4 UNK        -0.4237 
     55 C          31.6607  -48.7536  -51.3680 C.2       3 UNK         0.4908 
     56 O          30.5977  -49.1034  -50.8519 O.2       3 UNK        -0.5102 
     57 CA         32.6273  -47.8653  -50.5632 C.3       3 UNK         0.0241 
     58 CB         32.5748  -48.1653  -49.0530 C.3       3 UNK        -0.1971 
     59 N          34.0058  -48.0046  -51.0299 N.am      3 UNK        -0.4139 
     60 C          34.7908  -47.0046  -51.4485 C.2       2 UNK         0.5016 
     61 O          34.4530  -45.8200  -51.4645 O.2       2 UNK        -0.5319 
     62 CA         36.1904  -47.3884  -51.9717 C.3       2 UNK         0.0286 
     63 CB         36.6773  -48.7815  -51.5093 C.3       2 UNK        -0.1963 
     64 N          36.2718  -47.2837  -53.4341 N.am      2 UNK        -0.4790 
     65 C          35.4589  -47.8736  -54.3266 C.2       1 UNK         0.5024 
     66 O          34.5282  -48.6192  -54.0188 O.2       1 UNK        -0.4888 
     67 H67        39.6274  -49.3635  -57.2474 H         1 UNK         0.0892 
     68 H68        39.9644  -49.0804  -55.5372 H         1 UNK         0.0892 
     69 H69        39.6812  -47.7155  -56.6193 H         1 UNK         0.0892 
     70 H70        37.6436  -46.8415  -56.3637 H         1 UNK         0.3107 
     71 H71        35.2370  -48.3753  -56.3899 H         1 UNK         0.0773 
     72 H72        35.4395  -46.0717  -57.3325 H         1 UNK         0.0680 
     73 H73        35.6695  -45.4146  -55.7383 H         1 UNK         0.0680 
     74 H74        33.7519  -44.9590  -54.0520 H         1 UNK         0.0650 
     75 H75        33.7728  -43.8270  -55.3875 H         1 UNK         0.0650 
     76 H76        31.8616  -44.8228  -52.6253 H         1 UNK         0.1397 
     77 H77        28.1090  -43.3264  -54.0455 H         1 UNK         0.1363 
     78 H78        31.4318  -43.6931  -56.7371 H         1 UNK         0.1355 
     79 H79        28.3937  -43.8122  -57.1811 H         1 UNK         0.0707 
     80 H80        29.4726  -42.4659  -57.4446 H         1 UNK         0.0707 
     81 H81        26.4241  -42.8334  -58.0691 H         1 UNK         0.1034 
     82 H82        25.3547  -41.7410  -57.2719 H         1 UNK         0.1034 
     83 H83        26.1566  -43.9121  -55.4170 H         1 UNK         0.0482 
     84 H84        23.3595  -45.2230  -55.8404 H         1 UNK         0.3460 
     85 H85        22.3326  -44.0826  -55.0054 H         1 UNK         0.3460 
     86 H86        26.0326  -45.7314  -56.5630 H         1 UNK         0.2989 
     87 H87        24.4913  -47.2948  -58.2001 H         1 UNK         0.0559 
     88 H88        24.8469  -47.7287  -60.6398 H         1 UNK         0.0848 
     89 H89        25.2558  -46.0310  -60.8854 H         1 UNK         0.0848 
     90 H90        23.6388  -46.4840  -60.3692 H         1 UNK         0.0848 
     91 H91        26.5860  -47.9311  -58.0119 H         1 UNK         0.3144 
     92 H92        29.5293  -47.4102  -59.6129 H         1 UNK         0.0727 
     93 H93        30.7383  -46.8870  -57.4825 H         1 UNK         0.0790 
     94 H94        29.2605  -46.2121  -56.8036 H         1 UNK         0.0790 
     95 H95        30.0290  -45.4459  -58.1898 H         1 UNK         0.0790 
     96 H96        28.9890  -48.6688  -57.0827 H         1 UNK         0.3215 
     97 H97        27.3902  -51.5712  -58.4010 H         1 UNK         0.0863 
     98 H98        29.1685  -52.5982  -56.9499 H         1 UNK         0.0808 
     99 H99        30.1210  -51.1179  -57.0840 H         1 UNK         0.0808 
    100 H100       29.7992  -52.0904  -58.5085 H         1 UNK         0.0808 
    101 H101       28.0267  -50.5582  -55.7582 H         1 UNK         0.3118 
    102 H102       24.8700  -48.9924  -55.2080 H         1 UNK         0.0546 
    103 H103       24.4270  -51.4153  -54.8068 H         1 UNK         0.0828 
    104 H104       24.8074  -50.5842  -53.3088 H         1 UNK         0.0828 
    105 H105       26.0179  -51.6061  -54.0844 H         1 UNK         0.0828 
    106 H106       27.1683  -49.4662  -53.5444 H         1 UNK         0.3005 
    107 H107       28.9028  -46.4947  -54.3407 H         1 UNK         0.1257 
    108 H108       27.0944  -47.1086  -51.9461 H         1 UNK         0.0775 
    109 H109       27.1983  -45.5984  -52.8109 H         1 UNK         0.0775 
    110 H110       28.4019  -43.6462  -51.7072 H         1 UNK         0.0840 
    111 H111       30.0249  -43.7378  -51.0751 H         1 UNK         0.0840 
    112 H112       29.5011  -48.3460  -52.3614 H         1 UNK         0.2987 
    113 H113       30.6299  -50.6394  -52.9697 H         1 UNK         0.0785 
    114 H114       32.4921  -49.8662  -55.2704 H         1 UNK         0.0798 
    115 H115       31.4493  -51.2791  -55.1715 H         1 UNK         0.0798 
    116 H116       32.8324  -51.1419  -54.1024 H         1 UNK         0.0798 
    117 H117       32.8824  -48.7679  -53.0087 H         1 UNK         0.3079 
    118 H118       32.2806  -46.8407  -50.7143 H         1 UNK         0.0794 
    119 H119       32.8511  -49.1982  -48.8380 H         1 UNK         0.0786 
    120 H120       31.5729  -48.0029  -48.6533 H         1 UNK         0.0786 
    121 H121       33.2501  -47.5144  -48.4973 H         1 UNK         0.0786 
    122 H122       34.3621  -48.9481  -51.0972 H         1 UNK         0.3032 
    123 H123       36.8781  -46.6468  -51.5612 H         1 UNK         0.1094 
    124 H124       36.0916  -49.5942  -51.9404 H         1 UNK         0.0794 
    125 H125       37.7157  -48.9434  -51.7988 H         1 UNK         0.0794 
    126 H126       36.6329  -48.8755  -50.4232 H         1 UNK         0.0794 
    127 H127       36.9963  -46.6751  -53.7882 H         1 UNK         0.3016 
@<TRIPOS>BOND
     1    1    2 1    
     2    1   67 1    
     3    1   68 1    
     4    1   69 1    
     5    2    3 2    
     6    2    4 am   BACKBONE|DICT|INTERRES
     7    4    5 1    
     8    4   70 1    
     9    5    6 1    
    10    5   65 1    
    11    5   71 1    
    12    6    7 1    
    13    6   72 1    
    14    6   73 1    
    15    7    8 1    
    16    8    9 1    
    17    8   74 1    
    18    8   75 1    
    19    9   10 ar   
    20    9   14 ar   
    21   10   11 ar   
    22   10   76 1    
    23   11   12 ar   
    24   11   48 1    
    25   12   13 ar   
    26   12   77 1    
    27   13   14 ar   
    28   13   15 1    
    29   14   78 1    
    30   15   16 1    
    31   15   79 1    
    32   15   80 1    
    33   16   17 1    
    34   17   18 1    
    35   17   81 1    
    36   17   82 1    
    37   18   19 1    
    38   18   22 1    
    39   18   83 1    
    40   19   20 am   BACKBONE|DICT|INTERRES
    41   19   21 2    
    42   20   84 1    
    43   20   85 1    
    44   22   23 am   BACKBONE|DICT|INTERRES
    45   22   86 1    
    46   23   24 2    
    47   23   25 1    
    48   25   26 1    
    49   25   27 1    
    50   25   87 1    
    51   26   88 1    
    52   26   89 1    
    53   26   90 1    
    54   27   28 am   BACKBONE|DICT|INTERRES
    55   27   91 1    
    56   28   29 2    
    57   28   30 1    
    58   30   31 1    
    59   30   32 1    
    60   30   92 1    
    61   31   93 1    
    62   31   94 1    
    63   31   95 1    
    64   32   33 am   BACKBONE|DICT|INTERRES
    65   32   96 1    
    66   33   34 2    
    67   33   35 1    
    68   35   36 1    
    69   35   37 1    
    70   35   97 1    
    71   36   98 1    
    72   36   99 1    
    73   36  100 1    
    74   37   38 am   BACKBONE|DICT|INTERRES
    75   37  101 1    
    76   38   39 2    
    77   38   40 1    
    78   40   41 1    
    79   40   42 1    
    80   40  102 1    
    81   41  103 1    
    82   41  104 1    
    83   41  105 1    
    84   42   43 am   BACKBONE|DICT|INTERRES
    85   42  106 1    
    86   43   44 2    
    87   43   45 1    
    88   45   46 1    
    89   45   49 1    
    90   45  107 1    
    91   46   47 1    
    92   46  108 1    
    93   46  109 1    
    94   47   48 1    
    95   48  110 1    
    96   48  111 1    
    97   49   50 am   BACKBONE|DICT|INTERRES
    98   49  112 1    
    99   50   51 2    
   100   50   52 1    
   101   52   53 1    
   102   52   54 1    
   103   52  113 1    
   104   53  114 1    
   105   53  115 1    
   106   53  116 1    
   107   54   55 am   BACKBONE|DICT|INTERRES
   108   54  117 1    
   109   55   56 2    
   110   55   57 1    
   111   57   58 1    
   112   57   59 1    
   113   57  118 1    
   114   58  119 1    
   115   58  120 1    
   116   58  121 1    
   117   59   60 am   BACKBONE|DICT|INTERRES
   118   59  122 1    
   119   60   61 2    
   120   60   62 1    
   121   62   63 1    
   122   62   64 1    
   123   62  123 1    
   124   63  124 1    
   125   63  125 1    
   126   63  126 1    
   127   64   65 am   BACKBONE|DICT|INTERRES
   128   64  127 1    
   129   65   66 2    
@<TRIPOS>SUBSTRUCTURE
     1 UNK         1 GROUP             0       ****    0 ROOT    
