@<TRIPOS>MOLECULE
3R134
127   129    1
SMALL
USER_CHARGES


@<TRIPOS>ATOM
      1 CA         32.6942  -47.5611  -58.1311 C.3       0 UNK        -0.1968 
      2 C          32.8537  -47.2251  -56.6565 C.2       0 UNK         0.4852 
      3 O          32.5015  -48.0409  -55.8063 O.2       0 UNK        -0.5359 
      4 N          33.4131  -46.0471  -56.3455 N.am      1 UNK        -0.4300 
      5 CA         33.6670  -45.5505  -54.9829 C.3       1 UNK         0.0863 
      6 C6         34.2371  -44.1108  -54.9961 C.3       11 UNK        -0.0953 
      7 S7         33.1384  -42.9107  -55.8205 S.3       11 UNK        -0.2369 
      8 C8         32.5609  -41.9113  -54.4136 C.3       11 UNK         0.0226 
      9 C9         31.4353  -42.6003  -53.6572 C.ar      11 UNK        -0.0699 
     10 C10        31.7100  -43.4155  -52.5557 C.ar      11 UNK        -0.0804 
     11 C11        30.6689  -44.0225  -51.8479 C.ar      11 UNK        -0.0871 
     12 C12        29.3485  -43.8114  -52.2575 C.ar      11 UNK        -0.1008 
     13 C13        29.0542  -43.0146  -53.3674 C.ar      11 UNK        -0.0735 
     14 C14        30.1105  -42.4018  -54.0549 C.ar      11 UNK        -0.0945 
     15 C15        27.5839  -42.8675  -53.7704 C.3       11 UNK         0.0169 
     16 S16        27.1933  -41.5719  -54.9970 S.3       11 UNK        -0.2669 
     17 C17        27.7259  -42.3601  -56.5562 C.3       11 UNK        -0.0850 
     18 CA         26.6338  -43.2532  -57.2113 C.3       10 UNK         0.0855 
     19 C          25.5546  -42.4443  -57.9826 C.2       10 UNK         0.5543 
     20 N          24.7757  -41.6264  -57.2906 N.am      10 UNK        -0.7343 
     21 O          25.4167  -42.5482  -59.2012 O.2       10 UNK        -0.5027 
     22 N          27.2270  -44.2691  -58.0853 N.am      10 UNK        -0.4495 
     23 C          27.9121  -45.3446  -57.6925 C.2       10 UNK         0.4903 
     24 O          28.1469  -45.6340  -56.5167 O.2       10 UNK        -0.4860 
     25 CA         28.4730  -46.2228  -58.8118 C.3       9 UNK         0.0227 
     26 CB         29.8395  -45.6840  -59.2766 C.3       9 UNK        -0.1964 
     27 N          28.5922  -47.5862  -58.3069 N.am      9 UNK        -0.4231 
     28 C          28.7246  -48.6900  -59.0509 C.2       9 UNK         0.5014 
     29 O          28.8360  -48.6849  -60.2776 O.2       9 UNK        -0.5270 
     30 CA         28.7160  -50.0313  -58.3022 C.3       8 UNK         0.0284 
     31 CB         30.1223  -50.3787  -57.7853 C.3       8 UNK        -0.1977 
     32 N          27.7626  -50.0387  -57.1895 N.am      8 UNK        -0.4342 
     33 C          26.4365  -50.1716  -57.3338 C.2       8 UNK         0.5039 
     34 O          25.8766  -50.3140  -58.4218 O.2       8 UNK        -0.5547 
     35 CA         25.5893  -50.1512  -56.0520 C.3       7 UNK         0.0281 
     36 CB         25.7607  -51.4540  -55.2553 C.3       7 UNK        -0.1963 
     37 N          25.9000  -49.0080  -55.1948 N.am      7 UNK        -0.4444 
     38 C          25.5021  -47.7503  -55.4213 C.2       7 UNK         0.5104 
     39 O          24.8139  -47.4193  -56.3870 O.2       7 UNK        -0.5100 
     40 CA         25.9393  -46.6666  -54.4167 C.3       6 UNK         0.0396 
     41 CB         24.8793  -46.4504  -53.3194 C.3       6 UNK        -0.1801 
     42 N          27.2861  -46.8608  -53.8575 N.am      6 UNK        -0.4747 
     43 C          27.7024  -47.7855  -52.9800 C.2       6 UNK         0.5012 
     44 O          26.9629  -48.6266  -52.4641 O.2       6 UNK        -0.5003 
     45 CA         29.2088  -47.7918  -52.6444 C.3       5 UNK         0.0782 
     46 C46        29.4443  -47.1732  -51.2454 C.3       11 UNK        -0.0868 
     47 S47        31.1733  -46.6380  -51.0251 S.3       11 UNK        -0.2515 
     48 C48        30.9731  -44.8720  -50.6204 C.3       11 UNK         0.0199 
     49 N          29.7849  -49.1414  -52.7126 N.am      5 UNK        -0.4607 
     50 C          29.6592  -50.0146  -53.7187 C.2       4 UNK         0.5031 
     51 O          29.0639  -49.7771  -54.7708 O.2       4 UNK        -0.5119 
     52 CA         30.3104  -51.3912  -53.5150 C.3       4 UNK         0.0263 
     53 CB         29.3964  -52.5307  -53.9978 C.3       4 UNK        -0.1967 
     54 N          31.5783  -51.4593  -54.2354 N.am      4 UNK        -0.4237 
     55 C          32.7198  -50.8962  -53.8212 C.2       3 UNK         0.4908 
     56 O          32.8355  -50.3206  -52.7366 O.2       3 UNK        -0.5102 
     57 CA         33.9419  -51.0210  -54.7484 C.3       3 UNK         0.0241 
     58 CB         33.5897  -51.3824  -56.2077 C.3       3 UNK        -0.1971 
     59 N          34.6687  -49.7546  -54.7422 N.am      3 UNK        -0.4139 
     60 C          35.8678  -49.5433  -54.1839 C.2       2 UNK         0.5016 
     61 O          36.5268  -50.4239  -53.6276 O.2       2 UNK        -0.5319 
     62 CA         36.4609  -48.1230  -54.2769 C.3       2 UNK         0.0286 
     63 CB         37.7497  -48.1286  -55.1176 C.3       2 UNK        -0.1963 
     64 N          35.5336  -47.1467  -54.8548 N.am      2 UNK        -0.4790 
     65 C          34.6068  -46.4655  -54.1658 C.2       1 UNK         0.5024 
     66 O          34.4787  -46.5348  -52.9438 O.2       1 UNK        -0.4888 
     67 H67        33.3217  -48.4134  -58.3898 H         1 UNK         0.0892 
     68 H68        31.6605  -47.8263  -58.3453 H         1 UNK         0.0892 
     69 H69        32.9710  -46.7257  -58.7738 H         1 UNK         0.0892 
     70 H70        33.6696  -45.4095  -57.0860 H         1 UNK         0.3107 
     71 H71        32.7068  -45.5371  -54.4618 H         1 UNK         0.0773 
     72 H72        34.4421  -43.7695  -53.9799 H         1 UNK         0.0680 
     73 H73        35.1979  -44.0880  -55.5141 H         1 UNK         0.0680 
     74 H74        32.2110  -40.9503  -54.7936 H         1 UNK         0.0650 
     75 H75        33.3929  -41.6824  -53.7460 H         1 UNK         0.0650 
     76 H76        32.7331  -43.5696  -52.2414 H         1 UNK         0.1397 
     77 H77        28.5351  -44.2600  -51.7060 H         1 UNK         0.1363 
     78 H78        29.9202  -41.7627  -54.9039 H         1 UNK         0.1355 
     79 H79        26.9983  -42.6529  -52.8752 H         1 UNK         0.0707 
     80 H80        27.2263  -43.8263  -54.1458 H         1 UNK         0.0707 
     81 H81        28.0585  -41.5856  -57.2497 H         1 UNK         0.1034 
     82 H82        28.6150  -42.9532  -56.3435 H         1 UNK         0.1034 
     83 H83        26.1019  -43.7978  -56.4294 H         1 UNK         0.0482 
     84 H84        24.0690  -41.0911  -57.7702 H         1 UNK         0.3460 
     85 H85        24.9139  -41.5086  -56.2980 H         1 UNK         0.3460 
     86 H86        27.0483  -44.1137  -59.0697 H         1 UNK         0.2989 
     87 H87        27.7716  -46.2210  -59.6489 H         1 UNK         0.0559 
     88 H88        29.7382  -44.6869  -59.7067 H         1 UNK         0.0848 
     89 H89        30.5413  -45.6054  -58.4458 H         1 UNK         0.0848 
     90 H90        30.2876  -46.3181  -60.0413 H         1 UNK         0.0848 
     91 H91        28.4904  -47.6693  -57.3027 H         1 UNK         0.3144 
     92 H92        28.4212  -50.8064  -59.0131 H         1 UNK         0.0727 
     93 H93        30.1367  -51.3586  -57.3088 H         1 UNK         0.0790 
     94 H94        30.4789  -49.6487  -57.0575 H         1 UNK         0.0790 
     95 H95        30.8440  -50.4044  -58.6028 H         1 UNK         0.0790 
     96 H96        28.1558  -49.9314  -56.2522 H         1 UNK         0.3215 
     97 H97        24.5408  -50.0794  -56.3503 H         1 UNK         0.0863 
     98 H98        25.5405  -52.3240  -55.8755 H         1 UNK         0.0808 
     99 H99        26.7778  -51.5665  -54.8827 H         1 UNK         0.0808 
    100 H100       25.0860  -51.4865  -54.3996 H         1 UNK         0.0808 
    101 H101       26.4510  -49.1819  -54.3610 H         1 UNK         0.3118 
    102 H102       25.9941  -45.7370  -54.9826 H         1 UNK         0.0546 
    103 H103       23.9225  -46.1663  -53.7592 H         1 UNK         0.0828 
    104 H104       25.1713  -45.6526  -52.6368 H         1 UNK         0.0828 
    105 H105       24.7049  -47.3513  -52.7310 H         1 UNK         0.0828 
    106 H106       27.9856  -46.2710  -54.2934 H         1 UNK         0.3005 
    107 H107       29.7238  -47.1879  -53.3955 H         1 UNK         0.1257 
    108 H108       29.2014  -47.8937  -50.4619 H         1 UNK         0.0775 
    109 H109       28.7810  -46.3288  -51.0644 H         1 UNK         0.0775 
    110 H110       30.1920  -44.7499  -49.8684 H         1 UNK         0.0840 
    111 H111       31.8931  -44.5207  -50.1505 H         1 UNK         0.0840 
    112 H112       30.3412  -49.4132  -51.9151 H         1 UNK         0.2987 
    113 H113       30.4966  -51.5435  -52.4494 H         1 UNK         0.0785 
    114 H114       28.4517  -52.5243  -53.4531 H         1 UNK         0.0798 
    115 H115       29.8562  -53.5048  -53.8302 H         1 UNK         0.0798 
    116 H116       29.1652  -52.4490  -55.0608 H         1 UNK         0.0798 
    117 H117       31.5563  -51.8862  -55.1493 H         1 UNK         0.3079 
    118 H118       34.5639  -51.8213  -54.3428 H         1 UNK         0.0794 
    119 H119       33.1390  -52.3728  -56.2797 H         1 UNK         0.0786 
    120 H120       34.4844  -51.4006  -56.8304 H         1 UNK         0.0786 
    121 H121       32.8992  -50.6631  -56.6496 H         1 UNK         0.0786 
    122 H122       34.1425  -48.9593  -55.0906 H         1 UNK         0.3032 
    123 H123       36.7185  -47.8170  -53.2601 H         1 UNK         0.1094 
    124 H124       38.2066  -47.1393  -55.1505 H         1 UNK         0.0794 
    125 H125       38.4901  -48.8097  -54.6955 H         1 UNK         0.0794 
    126 H126       37.5619  -48.4476  -56.1436 H         1 UNK         0.0794 
    127 H127       35.5714  -47.0220  -55.8565 H         1 UNK         0.3016 
@<TRIPOS>BOND
     1    1    2 1    
     2    1   67 1    
     3    1   68 1    
     4    1   69 1    
     5    2    3 2    
     6    2    4 am   BACKBONE|DICT|INTERRES
     7    4    5 1    
     8    4   70 1    
     9    5    6 1    
    10    5   65 1    
    11    5   71 1    
    12    6    7 1    
    13    6   72 1    
    14    6   73 1    
    15    7    8 1    
    16    8    9 1    
    17    8   74 1    
    18    8   75 1    
    19    9   10 ar   
    20    9   14 ar   
    21   10   11 ar   
    22   10   76 1    
    23   11   12 ar   
    24   11   48 1    
    25   12   13 ar   
    26   12   77 1    
    27   13   14 ar   
    28   13   15 1    
    29   14   78 1    
    30   15   16 1    
    31   15   79 1    
    32   15   80 1    
    33   16   17 1    
    34   17   18 1    
    35   17   81 1    
    36   17   82 1    
    37   18   19 1    
    38   18   22 1    
    39   18   83 1    
    40   19   20 am   BACKBONE|DICT|INTERRES
    41   19   21 2    
    42   20   84 1    
    43   20   85 1    
    44   22   23 am   BACKBONE|DICT|INTERRES
    45   22   86 1    
    46   23   24 2    
    47   23   25 1    
    48   25   26 1    
    49   25   27 1    
    50   25   87 1    
    51   26   88 1    
    52   26   89 1    
    53   26   90 1    
    54   27   28 am   BACKBONE|DICT|INTERRES
    55   27   91 1    
    56   28   29 2    
    57   28   30 1    
    58   30   31 1    
    59   30   32 1    
    60   30   92 1    
    61   31   93 1    
    62   31   94 1    
    63   31   95 1    
    64   32   33 am   BACKBONE|DICT|INTERRES
    65   32   96 1    
    66   33   34 2    
    67   33   35 1    
    68   35   36 1    
    69   35   37 1    
    70   35   97 1    
    71   36   98 1    
    72   36   99 1    
    73   36  100 1    
    74   37   38 am   BACKBONE|DICT|INTERRES
    75   37  101 1    
    76   38   39 2    
    77   38   40 1    
    78   40   41 1    
    79   40   42 1    
    80   40  102 1    
    81   41  103 1    
    82   41  104 1    
    83   41  105 1    
    84   42   43 am   BACKBONE|DICT|INTERRES
    85   42  106 1    
    86   43   44 2    
    87   43   45 1    
    88   45   46 1    
    89   45   49 1    
    90   45  107 1    
    91   46   47 1    
    92   46  108 1    
    93   46  109 1    
    94   47   48 1    
    95   48  110 1    
    96   48  111 1    
    97   49   50 am   BACKBONE|DICT|INTERRES
    98   49  112 1    
    99   50   51 2    
   100   50   52 1    
   101   52   53 1    
   102   52   54 1    
   103   52  113 1    
   104   53  114 1    
   105   53  115 1    
   106   53  116 1    
   107   54   55 am   BACKBONE|DICT|INTERRES
   108   54  117 1    
   109   55   56 2    
   110   55   57 1    
   111   57   58 1    
   112   57   59 1    
   113   57  118 1    
   114   58  119 1    
   115   58  120 1    
   116   58  121 1    
   117   59   60 am   BACKBONE|DICT|INTERRES
   118   59  122 1    
   119   60   61 2    
   120   60   62 1    
   121   62   63 1    
   122   62   64 1    
   123   62  123 1    
   124   63  124 1    
   125   63  125 1    
   126   63  126 1    
   127   64   65 am   BACKBONE|DICT|INTERRES
   128   64  127 1    
   129   65   66 2    
@<TRIPOS>SUBSTRUCTURE
     1 UNK         1 GROUP             0       ****    0 ROOT    
