@<TRIPOS>MOLECULE
3R134
127   129    1
SMALL
USER_CHARGES


@<TRIPOS>ATOM
      1 CA         30.0289  -46.8427  -48.1932 C.3       0 UNK        -0.1968 
      2 C          31.3552  -46.4300  -48.8143 C.2       0 UNK         0.4852 
      3 O          32.2899  -46.0864  -48.0896 O.2       0 UNK        -0.5359 
      4 N          31.4452  -46.4681  -50.1507 N.am      1 UNK        -0.4300 
      5 CA         32.6270  -46.0705  -50.9310 C.3       1 UNK         0.0863 
      6 C6         32.2571  -45.6705  -52.3831 C.3       11 UNK        -0.0953 
      7 S7         30.9773  -44.3683  -52.4526 S.3       11 UNK        -0.2369 
      8 C8         31.8084  -43.0598  -53.4067 C.3       11 UNK         0.0226 
      9 C9         31.7514  -43.3360  -54.9024 C.ar      11 UNK        -0.0699 
     10 C10        32.7436  -44.1044  -55.5171 C.ar      11 UNK        -0.0804 
     11 C11        32.6880  -44.3751  -56.8863 C.ar      11 UNK        -0.0871 
     12 C12        31.6483  -43.8400  -57.6526 C.ar      11 UNK        -0.1008 
     13 C13        30.6585  -43.0548  -57.0534 C.ar      11 UNK        -0.0735 
     14 C14        30.7092  -42.8149  -55.6763 C.ar      11 UNK        -0.0945 
     15 C15        29.5505  -42.4476  -57.9001 C.3       11 UNK         0.0169 
     16 S16        28.2821  -43.6776  -58.3285 S.3       11 UNK        -0.2669 
     17 C17        27.1210  -42.6474  -59.2897 C.3       11 UNK        -0.0850 
     18 CA         25.7939  -42.3899  -58.5316 C.3       10 UNK         0.0855 
     19 C          24.9269  -41.3493  -59.2926 C.2       10 UNK         0.5543 
     20 N          25.0599  -40.0719  -58.9637 N.am      10 UNK        -0.7343 
     21 O          24.1738  -41.6856  -60.2048 O.2       10 UNK        -0.5027 
     22 N          25.0728  -43.6467  -58.2849 N.am      10 UNK        -0.4495 
     23 C          23.9938  -43.7834  -57.5038 C.2       10 UNK         0.4903 
     24 O          23.5160  -42.8700  -56.8297 O.2       10 UNK        -0.4860 
     25 CA         23.3190  -45.1688  -57.4660 C.3       9 UNK         0.0227 
     26 CB         22.0086  -45.1444  -58.2708 C.3       9 UNK        -0.1964 
     27 N          24.1669  -46.2571  -57.9667 N.am      9 UNK        -0.4231 
     28 C          25.1985  -46.7878  -57.2971 C.2       9 UNK         0.5014 
     29 O          25.5502  -46.4199  -56.1738 O.2       9 UNK        -0.5270 
     30 CA         25.9791  -47.8894  -58.0323 C.3       8 UNK         0.0284 
     31 CB         27.0177  -47.2762  -58.9862 C.3       8 UNK        -0.1977 
     32 N          26.6569  -48.7791  -57.0878 N.am      8 UNK        -0.4342 
     33 C          26.0541  -49.7934  -56.4498 C.2       8 UNK         0.5039 
     34 O          24.8758  -50.1035  -56.6364 O.2       8 UNK        -0.5547 
     35 CA         26.8856  -50.6315  -55.4587 C.3       7 UNK         0.0281 
     36 CB         27.2083  -52.0090  -56.0612 C.3       7 UNK        -0.1963 
     37 N          28.1357  -49.9914  -55.0483 N.am      7 UNK        -0.4444 
     38 C          28.2237  -48.9793  -54.1725 C.2       7 UNK         0.5104 
     39 O          27.2597  -48.5221  -53.5586 O.2       7 UNK        -0.5100 
     40 CA         29.6231  -48.3768  -53.9306 C.3       6 UNK         0.0396 
     41 CB         30.2101  -48.9796  -52.6420 C.3       6 UNK        -0.1801 
     42 N          30.5634  -48.5805  -55.0433 N.am      6 UNK        -0.4747 
     43 C          30.3663  -48.1651  -56.3082 C.2       6 UNK         0.5012 
     44 O          29.3967  -47.4860  -56.6421 O.2       6 UNK        -0.5003 
     45 CA         31.3306  -48.6592  -57.4133 C.3       5 UNK         0.0782 
     46 C46        32.1605  -47.5130  -58.0446 C.3       11 UNK        -0.0868 
     47 S47        33.5903  -46.9873  -57.0379 S.3       11 UNK        -0.2515 
     48 C48        33.7600  -45.2422  -57.5276 C.3       11 UNK         0.0199 
     49 N          32.1702  -49.7915  -57.0119 N.am      5 UNK        -0.4607 
     50 C          31.7298  -51.0126  -56.6845 C.2       4 UNK         0.5031 
     51 O          30.5478  -51.3501  -56.7572 O.2       4 UNK        -0.5119 
     52 CA         32.7714  -52.0051  -56.1314 C.3       4 UNK         0.0263 
     53 CB         33.2658  -52.9356  -57.2503 C.3       4 UNK        -0.1967 
     54 N          33.9301  -51.3869  -55.4656 N.am      4 UNK        -0.4237 
     55 C          33.8667  -50.5392  -54.4280 C.2       3 UNK         0.4908 
     56 O          32.8080  -50.1145  -53.9623 O.2       3 UNK        -0.5102 
     57 CA         35.2066  -50.0527  -53.8478 C.3       3 UNK         0.0241 
     58 CB         35.8162  -48.9539  -54.7331 C.3       3 UNK        -0.1971 
     59 N          35.0376  -49.5167  -52.4967 N.am      3 UNK        -0.4139 
     60 C          34.7611  -50.2368  -51.4046 C.2       2 UNK         0.5016 
     61 O          34.7659  -51.4688  -51.3806 O.2       2 UNK        -0.5319 
     62 CA         34.4002  -49.4647  -50.1216 C.3       2 UNK         0.0286 
     63 CB         35.6654  -49.0803  -49.3294 C.3       2 UNK        -0.1963 
     64 N          33.5100  -48.3060  -50.3176 N.am      2 UNK        -0.4790 
     65 C          33.7555  -47.1307  -50.9209 C.2       1 UNK         0.5024 
     66 O          34.8233  -46.8677  -51.4757 O.2       1 UNK        -0.4888 
     67 H67        29.6125  -46.0170  -47.6168 H         1 UNK         0.0892 
     68 H68        29.2968  -47.1323  -48.9469 H         1 UNK         0.0892 
     69 H69        30.1757  -47.6875  -47.5209 H         1 UNK         0.0892 
     70 H70        30.6337  -46.7226  -50.6947 H         1 UNK         0.3107 
     71 H71        33.0508  -45.1840  -50.4536 H         1 UNK         0.0773 
     72 H72        33.1502  -45.3191  -52.8987 H         1 UNK         0.0680 
     73 H73        31.9026  -46.5254  -52.9579 H         1 UNK         0.0680 
     74 H74        32.8416  -42.9509  -53.0734 H         1 UNK         0.0650 
     75 H75        31.3200  -42.1088  -53.1888 H         1 UNK         0.0650 
     76 H76        33.5581  -44.5075  -54.9328 H         1 UNK         0.1397 
     77 H77        31.6034  -44.0352  -58.7155 H         1 UNK         0.1363 
     78 H78        29.9409  -42.2161  -55.2063 H         1 UNK         0.1355 
     79 H79        29.0805  -41.6152  -57.3737 H         1 UNK         0.0707 
     80 H80        29.9785  -42.0343  -58.8148 H         1 UNK         0.0707 
     81 H81        27.6071  -41.7030  -59.5432 H         1 UNK         0.1034 
     82 H82        26.9267  -43.1433  -60.2428 H         1 UNK         0.1034 
     83 H83        26.0400  -41.9669  -57.5552 H         1 UNK         0.0482 
     84 H84        25.6804  -39.7852  -58.2224 H         1 UNK         0.3460 
     85 H85        24.5180  -39.3798  -59.4574 H         1 UNK         0.3460 
     86 H86        25.3976  -44.4505  -58.7985 H         1 UNK         0.2989 
     87 H87        23.0711  -45.3810  -56.4237 H         1 UNK         0.0559 
     88 H88        22.1859  -44.9363  -59.3269 H         1 UNK         0.0848 
     89 H89        21.3354  -44.3715  -57.8971 H         1 UNK         0.0848 
     90 H90        21.4780  -46.0940  -58.1980 H         1 UNK         0.0848 
     91 H91        23.9462  -46.6166  -58.8849 H         1 UNK         0.3144 
     92 H92        25.2770  -48.4784  -58.6269 H         1 UNK         0.0727 
     93 H93        27.5969  -48.0478  -59.4938 H         1 UNK         0.0790 
     94 H94        27.7164  -46.6280  -58.4573 H         1 UNK         0.0790 
     95 H95        26.5379  -46.6726  -59.7573 H         1 UNK         0.0790 
     96 H96        27.5991  -48.5136  -56.8210 H         1 UNK         0.3215 
     97 H97        26.2703  -50.7854  -54.5694 H         1 UNK         0.0863 
     98 H98        27.7510  -52.6360  -55.3536 H         1 UNK         0.0808 
     99 H99        27.8135  -51.9218  -56.9646 H         1 UNK         0.0808 
    100 H100       26.2953  -52.5416  -56.3310 H         1 UNK         0.0808 
    101 H101       28.9832  -50.3176  -55.4986 H         1 UNK         0.3118 
    102 H102       29.5057  -47.3001  -53.7926 H         1 UNK         0.0546 
    103 H103       29.5736  -48.7628  -51.7833 H         1 UNK         0.0828 
    104 H104       31.2017  -48.5908  -52.4205 H         1 UNK         0.0828 
    105 H105       30.2976  -50.0646  -52.7140 H         1 UNK         0.0828 
    106 H106       31.3869  -49.1401  -54.8333 H         1 UNK         0.3005 
    107 H107       30.6730  -49.0353  -58.2008 H         1 UNK         0.1257 
    108 H108       31.5217  -46.6557  -58.2639 H         1 UNK         0.0775 
    109 H109       32.5482  -47.8400  -59.0105 H         1 UNK         0.0775 
    110 H110       34.7432  -44.8837  -57.2191 H         1 UNK         0.0840 
    111 H111       33.7340  -45.1628  -58.6156 H         1 UNK         0.0840 
    112 H112       33.1519  -49.5856  -56.8978 H         1 UNK         0.2987 
    113 H113       32.2596  -52.6138  -55.3831 H         1 UNK         0.0785 
    114 H114       32.4286  -53.4285  -57.7470 H         1 UNK         0.0798 
    115 H115       33.9132  -53.7205  -56.8588 H         1 UNK         0.0798 
    116 H116       33.8214  -52.3892  -58.0136 H         1 UNK         0.0798 
    117 H117       34.8403  -51.6698  -55.8002 H         1 UNK         0.3079 
    118 H118       35.8937  -50.9002  -53.8032 H         1 UNK         0.0794 
    119 H119       35.1872  -48.0633  -54.7540 H         1 UNK         0.0786 
    120 H120       35.9417  -49.2917  -55.7626 H         1 UNK         0.0786 
    121 H121       36.7999  -48.6557  -54.3698 H         1 UNK         0.0786 
    122 H122       35.0051  -48.5065  -52.3986 H         1 UNK         0.3032 
    123 H123       33.8336  -50.1618  -49.5013 H         1 UNK         0.1094 
    124 H124       36.3108  -48.4027  -49.8890 H         1 UNK         0.0794 
    125 H125       35.4106  -48.5982  -48.3855 H         1 UNK         0.0794 
    126 H126       36.2574  -49.9652  -49.0916 H         1 UNK         0.0794 
    127 H127       32.5860  -48.4158  -49.9238 H         1 UNK         0.3016 
@<TRIPOS>BOND
     1    1    2 1    
     2    1   67 1    
     3    1   68 1    
     4    1   69 1    
     5    2    3 2    
     6    2    4 am   BACKBONE|DICT|INTERRES
     7    4    5 1    
     8    4   70 1    
     9    5    6 1    
    10    5   65 1    
    11    5   71 1    
    12    6    7 1    
    13    6   72 1    
    14    6   73 1    
    15    7    8 1    
    16    8    9 1    
    17    8   74 1    
    18    8   75 1    
    19    9   10 ar   
    20    9   14 ar   
    21   10   11 ar   
    22   10   76 1    
    23   11   12 ar   
    24   11   48 1    
    25   12   13 ar   
    26   12   77 1    
    27   13   14 ar   
    28   13   15 1    
    29   14   78 1    
    30   15   16 1    
    31   15   79 1    
    32   15   80 1    
    33   16   17 1    
    34   17   18 1    
    35   17   81 1    
    36   17   82 1    
    37   18   19 1    
    38   18   22 1    
    39   18   83 1    
    40   19   20 am   BACKBONE|DICT|INTERRES
    41   19   21 2    
    42   20   84 1    
    43   20   85 1    
    44   22   23 am   BACKBONE|DICT|INTERRES
    45   22   86 1    
    46   23   24 2    
    47   23   25 1    
    48   25   26 1    
    49   25   27 1    
    50   25   87 1    
    51   26   88 1    
    52   26   89 1    
    53   26   90 1    
    54   27   28 am   BACKBONE|DICT|INTERRES
    55   27   91 1    
    56   28   29 2    
    57   28   30 1    
    58   30   31 1    
    59   30   32 1    
    60   30   92 1    
    61   31   93 1    
    62   31   94 1    
    63   31   95 1    
    64   32   33 am   BACKBONE|DICT|INTERRES
    65   32   96 1    
    66   33   34 2    
    67   33   35 1    
    68   35   36 1    
    69   35   37 1    
    70   35   97 1    
    71   36   98 1    
    72   36   99 1    
    73   36  100 1    
    74   37   38 am   BACKBONE|DICT|INTERRES
    75   37  101 1    
    76   38   39 2    
    77   38   40 1    
    78   40   41 1    
    79   40   42 1    
    80   40  102 1    
    81   41  103 1    
    82   41  104 1    
    83   41  105 1    
    84   42   43 am   BACKBONE|DICT|INTERRES
    85   42  106 1    
    86   43   44 2    
    87   43   45 1    
    88   45   46 1    
    89   45   49 1    
    90   45  107 1    
    91   46   47 1    
    92   46  108 1    
    93   46  109 1    
    94   47   48 1    
    95   48  110 1    
    96   48  111 1    
    97   49   50 am   BACKBONE|DICT|INTERRES
    98   49  112 1    
    99   50   51 2    
   100   50   52 1    
   101   52   53 1    
   102   52   54 1    
   103   52  113 1    
   104   53  114 1    
   105   53  115 1    
   106   53  116 1    
   107   54   55 am   BACKBONE|DICT|INTERRES
   108   54  117 1    
   109   55   56 2    
   110   55   57 1    
   111   57   58 1    
   112   57   59 1    
   113   57  118 1    
   114   58  119 1    
   115   58  120 1    
   116   58  121 1    
   117   59   60 am   BACKBONE|DICT|INTERRES
   118   59  122 1    
   119   60   61 2    
   120   60   62 1    
   121   62   63 1    
   122   62   64 1    
   123   62  123 1    
   124   63  124 1    
   125   63  125 1    
   126   63  126 1    
   127   64   65 am   BACKBONE|DICT|INTERRES
   128   64  127 1    
   129   65   66 2    
@<TRIPOS>SUBSTRUCTURE
     1 UNK         1 GROUP             0       ****    0 ROOT    
