@<TRIPOS>MOLECULE
3R134
127   129    1
SMALL
USER_CHARGES


@<TRIPOS>ATOM
      1 CA         35.6246  -44.1893  -48.0603 C.3       0 UNK        -0.1968 
      2 C          35.4919  -44.5214  -49.5395 C.2       0 UNK         0.4852 
      3 O          36.4904  -44.5041  -50.2616 O.2       0 UNK        -0.5359 
      4 N          34.2671  -44.8135  -49.9952 N.am      1 UNK        -0.4300 
      5 CA         33.9539  -45.1984  -51.3761 C.3       1 UNK         0.0863 
      6 C6         32.4511  -45.0070  -51.7122 C.3       11 UNK        -0.0953 
      7 S7         31.7897  -43.3674  -51.2429 S.3       11 UNK        -0.2369 
      8 C8         32.5678  -42.2430  -52.4479 C.3       11 UNK         0.0226 
      9 C9         32.0117  -42.4333  -53.8499 C.ar      11 UNK        -0.0699 
     10 C10        32.7282  -43.1710  -54.7974 C.ar      11 UNK        -0.0804 
     11 C11        32.1987  -43.3838  -56.0729 C.ar      11 UNK        -0.0871 
     12 C12        30.9707  -42.8110  -56.4137 C.ar      11 UNK        -0.1008 
     13 C13        30.2405  -42.0838  -55.4724 C.ar      11 UNK        -0.0735 
     14 C14        30.7687  -41.8892  -54.1927 C.ar      11 UNK        -0.0945 
     15 C15        28.8645  -41.5543  -55.8389 C.3       11 UNK         0.0169 
     16 S16        27.5925  -42.8363  -55.5795 S.3       11 UNK        -0.2669 
     17 C17        26.5393  -42.6328  -57.0619 C.3       11 UNK        -0.0850 
     18 CA         26.6330  -43.8109  -58.0719 C.3       10 UNK         0.0855 
     19 C          28.0299  -43.9485  -58.7391 C.2       10 UNK         0.5543 
     20 N          28.6751  -45.1082  -58.7102 N.am      10 UNK        -0.7343 
     21 O          28.5262  -42.9883  -59.3226 O.2       10 UNK        -0.5027 
     22 N          26.0908  -45.0671  -57.5286 N.am      10 UNK        -0.4495 
     23 C          24.7960  -45.4031  -57.5447 C.2       10 UNK         0.4903 
     24 O          23.9049  -44.6748  -57.9868 O.2       10 UNK        -0.4860 
     25 CA         24.4447  -46.7887  -56.9714 C.3       9 UNK         0.0227 
     26 CB         22.9507  -47.1485  -57.1148 C.3       9 UNK        -0.1964 
     27 N          25.2918  -47.8558  -57.5140 N.am      9 UNK        -0.4231 
     28 C          25.4197  -48.2523  -58.7896 C.2       9 UNK         0.5014 
     29 O          24.7883  -47.7670  -59.7293 O.2       9 UNK        -0.5270 
     30 CA         26.4327  -49.3798  -59.0803 C.3       8 UNK         0.0284 
     31 CB         27.6708  -48.8149  -59.7968 C.3       8 UNK        -0.1977 
     32 N          26.8683  -50.1077  -57.8835 N.am      8 UNK        -0.4342 
     33 C          26.1198  -50.9860  -57.2005 C.2       8 UNK         0.5039 
     34 O          25.0048  -51.3632  -57.5618 O.2       8 UNK        -0.5547 
     35 CA         26.6908  -51.4845  -55.8594 C.3       7 UNK         0.0281 
     36 CB         27.6749  -52.6449  -56.0749 C.3       7 UNK        -0.1963 
     37 N          27.3393  -50.4117  -55.0966 N.am      7 UNK        -0.4444 
     38 C          26.6987  -49.3388  -54.6078 C.2       7 UNK         0.5104 
     39 O          25.4803  -49.1821  -54.6679 O.2       7 UNK        -0.5100 
     40 CA         27.5612  -48.2198  -54.0078 C.3       6 UNK         0.0396 
     41 CB         27.8273  -48.4692  -52.5151 C.3       6 UNK        -0.1801 
     42 N          28.8286  -48.0649  -54.7210 N.am      6 UNK        -0.4747 
     43 C          28.9617  -47.4992  -55.9302 C.2       6 UNK         0.5012 
     44 O          28.0276  -47.0250  -56.5790 O.2       6 UNK        -0.5003 
     45 CA         30.3883  -47.4624  -56.5140 C.3       5 UNK         0.0782 
     46 C46        31.1439  -46.2699  -55.8914 C.3       11 UNK        -0.0868 
     47 S47        32.8540  -46.0563  -56.5034 S.3       11 UNK        -0.2515 
     48 C48        32.8949  -44.3138  -57.0567 C.3       11 UNK         0.0199 
     49 N          31.0994  -48.7259  -56.3177 N.am      5 UNK        -0.4607 
     50 C          30.7086  -49.9209  -56.7804 C.2       4 UNK         0.5031 
     51 O          29.7220  -50.0901  -57.4951 O.2       4 UNK        -0.5119 
     52 CA         31.5200  -51.1370  -56.3005 C.3       4 UNK         0.0263 
     53 CB         32.6838  -51.4213  -57.2618 C.3       4 UNK        -0.1967 
     54 N          32.0404  -50.9633  -54.9404 N.am      4 UNK        -0.4237 
     55 C          31.2978  -50.7550  -53.8456 C.2       3 UNK         0.4908 
     56 O          30.0665  -50.7801  -53.8494 O.2       3 UNK        -0.5102 
     57 CA         32.0368  -50.3790  -52.5488 C.3       3 UNK         0.0241 
     58 CB         32.5488  -51.6342  -51.8164 C.3       3 UNK        -0.1971 
     59 N          33.0996  -49.3707  -52.7204 N.am      3 UNK        -0.4139 
     60 C          34.2701  -49.4766  -53.3685 C.2       2 UNK         0.5016 
     61 O          34.6166  -50.4958  -53.9683 O.2       2 UNK        -0.5319 
     62 CA         35.2045  -48.2471  -53.3958 C.3       2 UNK         0.0286 
     63 CB         35.7927  -48.0286  -54.8022 C.3       2 UNK        -0.1963 
     64 N          34.6080  -46.9835  -52.9373 N.am      2 UNK        -0.4790 
     65 C          34.4098  -46.6483  -51.6551 C.2       1 UNK         0.5024 
     66 O          34.5556  -47.4430  -50.7233 O.2       1 UNK        -0.4888 
     67 H67        34.6641  -44.2245  -47.5465 H         1 UNK         0.0892 
     68 H68        36.0388  -43.1891  -47.9358 H         1 UNK         0.0892 
     69 H69        36.2944  -44.8991  -47.5756 H         1 UNK         0.0892 
     70 H70        33.4863  -44.8242  -49.3550 H         1 UNK         0.3107 
     71 H71        34.5319  -44.5495  -52.0370 H         1 UNK         0.0773 
     72 H72        31.8492  -45.7538  -51.1906 H         1 UNK         0.0680 
     73 H73        32.2678  -45.1662  -52.7759 H         1 UNK         0.0680 
     74 H74        32.3892  -41.2154  -52.1282 H         1 UNK         0.0650 
     75 H75        33.6500  -42.3770  -52.4348 H         1 UNK         0.0650 
     76 H76        33.6756  -43.6186  -54.5309 H         1 UNK         0.1397 
     77 H77        30.5491  -42.9843  -57.3944 H         1 UNK         0.1363 
     78 H78        30.2026  -41.3369  -53.4549 H         1 UNK         0.1355 
     79 H79        28.8769  -41.2260  -56.8792 H         1 UNK         0.0707 
     80 H80        28.6178  -40.6751  -55.2417 H         1 UNK         0.0707 
     81 H81        26.7663  -41.6901  -57.5620 H         1 UNK         0.1034 
     82 H82        25.5074  -42.5275  -56.7240 H         1 UNK         0.1034 
     83 H83        25.9952  -43.5392  -58.9153 H         1 UNK         0.0482 
     84 H84        28.3035  -45.8946  -58.1967 H         1 UNK         0.3460 
     85 H85        29.5619  -45.1791  -59.1814 H         1 UNK         0.3460 
     86 H86        26.7652  -45.7157  -57.1325 H         1 UNK         0.2989 
     87 H87        24.6677  -46.7393  -55.9047 H         1 UNK         0.0559 
     88 H88        22.7335  -48.1179  -56.6662 H         1 UNK         0.0848 
     89 H89        22.6395  -47.1843  -58.1593 H         1 UNK         0.0848 
     90 H90        22.3218  -46.4118  -56.6136 H         1 UNK         0.0848 
     91 H91        25.8789  -48.3178  -56.8332 H         1 UNK         0.3144 
     92 H92        25.9444  -50.0890  -59.7518 H         1 UNK         0.0727 
     93 H93        28.3605  -49.6097  -60.0816 H         1 UNK         0.0790 
     94 H94        28.2154  -48.1119  -59.1665 H         1 UNK         0.0790 
     95 H95        27.3906  -48.2865  -60.7091 H         1 UNK         0.0790 
     96 H96        27.8206  -49.9343  -57.5684 H         1 UNK         0.3215 
     97 H97        25.8559  -51.8552  -55.2606 H         1 UNK         0.0863 
     98 H98        28.0876  -52.9988  -55.1298 H         1 UNK         0.0808 
     99 H99        28.5059  -52.3590  -56.7187 H         1 UNK         0.0808 
    100 H100       27.1761  -53.4911  -56.5491 H         1 UNK         0.0808 
    101 H101       28.3396  -50.4861  -54.9414 H         1 UNK         0.3118 
    102 H102       27.0039  -47.2845  -54.0978 H         1 UNK         0.0546 
    103 H103       26.8901  -48.5346  -51.9609 H         1 UNK         0.0828 
    104 H104       28.4067  -47.6580  -52.0742 H         1 UNK         0.0828 
    105 H105       28.3684  -49.4002  -52.3452 H         1 UNK         0.0828 
    106 H106       29.6406  -48.4832  -54.2899 H         1 UNK         0.3005 
    107 H107       30.3020  -47.3010  -57.5904 H         1 UNK         0.1257 
    108 H108       31.1992  -46.3662  -54.8053 H         1 UNK         0.0775 
    109 H109       30.5625  -45.3693  -56.0786 H         1 UNK         0.0775 
    110 H110       33.9325  -44.0021  -57.1836 H         1 UNK         0.0840 
    111 H111       32.4328  -44.2488  -58.0431 H         1 UNK         0.0840 
    112 H112       31.9419  -48.6783  -55.7653 H         1 UNK         0.2987 
    113 H113       30.8551  -52.0023  -56.2947 H         1 UNK         0.0785 
    114 H114       33.3994  -50.5982  -57.2855 H         1 UNK         0.0798 
    115 H115       32.3214  -51.5698  -58.2801 H         1 UNK         0.0798 
    116 H116       33.2223  -52.3248  -56.9753 H         1 UNK         0.0798 
    117 H117       33.0517  -50.9243  -54.8229 H         1 UNK         0.3079 
    118 H118       31.2953  -49.9098  -51.8999 H         1 UNK         0.0794 
    119 H119       33.2838  -52.1838  -52.4052 H         1 UNK         0.0786 
    120 H120       31.7281  -52.3206  -51.6036 H         1 UNK         0.0786 
    121 H121       33.0096  -51.3752  -50.8631 H         1 UNK         0.0786 
    122 H122       32.9281  -48.4873  -52.2613 H         1 UNK         0.3032 
    123 H123       36.0342  -48.4872  -52.7266 H         1 UNK         0.1094 
    124 H124       35.0129  -47.8568  -55.5440 H         1 UNK         0.0794 
    125 H125       36.4725  -47.1766  -54.8237 H         1 UNK         0.0794 
    126 H126       36.3641  -48.8981  -55.1303 H         1 UNK         0.0794 
    127 H127       34.4276  -46.2954  -53.6550 H         1 UNK         0.3016 
@<TRIPOS>BOND
     1    1    2 1    
     2    1   67 1    
     3    1   68 1    
     4    1   69 1    
     5    2    3 2    
     6    2    4 am   BACKBONE|DICT|INTERRES
     7    4    5 1    
     8    4   70 1    
     9    5    6 1    
    10    5   65 1    
    11    5   71 1    
    12    6    7 1    
    13    6   72 1    
    14    6   73 1    
    15    7    8 1    
    16    8    9 1    
    17    8   74 1    
    18    8   75 1    
    19    9   10 ar   
    20    9   14 ar   
    21   10   11 ar   
    22   10   76 1    
    23   11   12 ar   
    24   11   48 1    
    25   12   13 ar   
    26   12   77 1    
    27   13   14 ar   
    28   13   15 1    
    29   14   78 1    
    30   15   16 1    
    31   15   79 1    
    32   15   80 1    
    33   16   17 1    
    34   17   18 1    
    35   17   81 1    
    36   17   82 1    
    37   18   19 1    
    38   18   22 1    
    39   18   83 1    
    40   19   20 am   BACKBONE|DICT|INTERRES
    41   19   21 2    
    42   20   84 1    
    43   20   85 1    
    44   22   23 am   BACKBONE|DICT|INTERRES
    45   22   86 1    
    46   23   24 2    
    47   23   25 1    
    48   25   26 1    
    49   25   27 1    
    50   25   87 1    
    51   26   88 1    
    52   26   89 1    
    53   26   90 1    
    54   27   28 am   BACKBONE|DICT|INTERRES
    55   27   91 1    
    56   28   29 2    
    57   28   30 1    
    58   30   31 1    
    59   30   32 1    
    60   30   92 1    
    61   31   93 1    
    62   31   94 1    
    63   31   95 1    
    64   32   33 am   BACKBONE|DICT|INTERRES
    65   32   96 1    
    66   33   34 2    
    67   33   35 1    
    68   35   36 1    
    69   35   37 1    
    70   35   97 1    
    71   36   98 1    
    72   36   99 1    
    73   36  100 1    
    74   37   38 am   BACKBONE|DICT|INTERRES
    75   37  101 1    
    76   38   39 2    
    77   38   40 1    
    78   40   41 1    
    79   40   42 1    
    80   40  102 1    
    81   41  103 1    
    82   41  104 1    
    83   41  105 1    
    84   42   43 am   BACKBONE|DICT|INTERRES
    85   42  106 1    
    86   43   44 2    
    87   43   45 1    
    88   45   46 1    
    89   45   49 1    
    90   45  107 1    
    91   46   47 1    
    92   46  108 1    
    93   46  109 1    
    94   47   48 1    
    95   48  110 1    
    96   48  111 1    
    97   49   50 am   BACKBONE|DICT|INTERRES
    98   49  112 1    
    99   50   51 2    
   100   50   52 1    
   101   52   53 1    
   102   52   54 1    
   103   52  113 1    
   104   53  114 1    
   105   53  115 1    
   106   53  116 1    
   107   54   55 am   BACKBONE|DICT|INTERRES
   108   54  117 1    
   109   55   56 2    
   110   55   57 1    
   111   57   58 1    
   112   57   59 1    
   113   57  118 1    
   114   58  119 1    
   115   58  120 1    
   116   58  121 1    
   117   59   60 am   BACKBONE|DICT|INTERRES
   118   59  122 1    
   119   60   61 2    
   120   60   62 1    
   121   62   63 1    
   122   62   64 1    
   123   62  123 1    
   124   63  124 1    
   125   63  125 1    
   126   63  126 1    
   127   64   65 am   BACKBONE|DICT|INTERRES
   128   64  127 1    
   129   65   66 2    
@<TRIPOS>SUBSTRUCTURE
     1 UNK         1 GROUP             0       ****    0 ROOT    
