@<TRIPOS>MOLECULE
3R134
127   129    1
SMALL
USER_CHARGES


@<TRIPOS>ATOM
      1 CA         38.5112  -44.5136  -52.6128 C.3       0 UNK        -0.1968 
      2 C          37.0566  -44.9367  -52.7534 C.2       0 UNK         0.4852 
      3 O          36.3246  -44.9323  -51.7621 O.2       0 UNK        -0.5359 
      4 N          36.6429  -45.3129  -53.9727 N.am      1 UNK        -0.4300 
      5 CA         35.2957  -45.7384  -54.3911 C.3       1 UNK         0.0863 
      6 C6         34.1865  -44.6867  -54.1320 C.3       11 UNK        -0.0953 
      7 S7         34.4968  -43.1226  -55.0189 S.3       11 UNK        -0.2369 
      8 C8         33.6411  -41.9265  -53.9460 C.3       11 UNK         0.0226 
      9 C9         32.1516  -42.2237  -53.8610 C.ar      11 UNK        -0.0699 
     10 C10        31.6261  -42.8697  -52.7403 C.ar      11 UNK        -0.0804 
     11 C11        30.2679  -43.1925  -52.6764 C.ar      11 UNK        -0.0871 
     12 C12        29.4277  -42.8560  -53.7430 C.ar      11 UNK        -0.1008 
     13 C13        29.9394  -42.1907  -54.8629 C.ar      11 UNK        -0.0735 
     14 C14        31.3006  -41.8708  -54.9106 C.ar      11 UNK        -0.0945 
     15 C15        29.0218  -41.7917  -56.0111 C.3       11 UNK         0.0169 
     16 S16        29.5810  -42.4572  -57.6122 S.3       11 UNK        -0.2669 
     17 C17        29.0871  -44.2115  -57.4889 C.3       11 UNK        -0.0850 
     18 CA         27.7801  -44.5171  -58.2734 C.3       10 UNK         0.0855 
     19 C          28.0064  -44.6994  -59.8088 C.2       10 UNK         0.5543 
     20 N          27.3608  -45.6449  -60.4798 N.am      10 UNK        -0.7343 
     21 O          28.7754  -43.9630  -60.4207 O.2       10 UNK        -0.5027 
     22 N          27.0373  -45.6209  -57.6425 N.am      10 UNK        -0.4495 
     23 C          25.7038  -45.7105  -57.5861 C.2       10 UNK         0.4903 
     24 O          24.9417  -44.8265  -57.9827 O.2       10 UNK        -0.4860 
     25 CA         25.1305  -47.0290  -57.0257 C.3       9 UNK         0.0227 
     26 CB         23.5951  -46.9963  -56.8882 C.3       9 UNK        -0.1964 
     27 N          25.5279  -48.2231  -57.7852 N.am      9 UNK        -0.4231 
     28 C          25.5193  -48.4072  -59.1164 C.2       9 UNK         0.5014 
     29 O          25.1949  -47.5377  -59.9257 O.2       9 UNK        -0.5270 
     30 CA         25.9080  -49.8020  -59.6523 C.3       8 UNK         0.0284 
     31 CB         26.8055  -49.7169  -60.9062 C.3       8 UNK        -0.1977 
     32 N          26.4792  -50.7000  -58.6394 N.am      8 UNK        -0.4342 
     33 C          27.6562  -50.5851  -58.0088 C.2       8 UNK         0.5039 
     34 O          28.4961  -49.7175  -58.2477 O.2       8 UNK        -0.5547 
     35 CA         27.8964  -51.5818  -56.8645 C.3       7 UNK         0.0281 
     36 CB         29.3286  -52.1447  -56.8884 C.3       7 UNK        -0.1963 
     37 N          27.6369  -50.9587  -55.5646 N.am      7 UNK        -0.4444 
     38 C          26.4394  -50.5409  -55.1276 C.2       7 UNK         0.5104 
     39 O          25.4086  -50.6063  -55.7974 O.2       7 UNK        -0.5100 
     40 CA         26.3740  -49.9374  -53.7187 C.3       6 UNK         0.0396 
     41 CB         26.4951  -51.0387  -52.6530 C.3       6 UNK        -0.1801 
     42 N          27.4365  -48.9543  -53.5223 N.am      6 UNK        -0.4747 
     43 C          27.2564  -47.6311  -53.3951 C.2       6 UNK         0.5012 
     44 O          26.1542  -47.0823  -53.3926 O.2       6 UNK        -0.5003 
     45 CA         28.5274  -46.7686  -53.2320 C.3       5 UNK         0.0782 
     46 C46        28.8088  -46.5655  -51.7224 C.3       11 UNK        -0.0868 
     47 S47        30.3208  -45.6148  -51.3652 S.3       11 UNK        -0.2515 
     48 C48        29.7257  -43.8968  -51.4433 C.3       11 UNK         0.0199 
     49 N          29.6776  -47.3344  -53.9446 N.am      5 UNK        -0.4607 
     50 C          29.7368  -47.5404  -55.2677 C.2       4 UNK         0.5031 
     51 O          28.8696  -47.1572  -56.0526 O.2       4 UNK        -0.5119 
     52 CA         30.9363  -48.3393  -55.8096 C.3       4 UNK         0.0263 
     53 CB         31.9142  -47.4042  -56.5367 C.3       4 UNK        -0.1967 
     54 N          31.6624  -49.1389  -54.8092 N.am      4 UNK        -0.4237 
     55 C          31.1271  -50.1228  -54.0654 C.2       3 UNK         0.4908 
     56 O          29.9313  -50.4175  -54.0874 O.2       3 UNK        -0.5102 
     57 CA         32.0521  -50.9213  -53.1312 C.3       3 UNK         0.0241 
     58 CB         32.3816  -52.2865  -53.7562 C.3       3 UNK        -0.1971 
     59 N          33.2987  -50.2391  -52.7816 N.am      3 UNK        -0.4139 
     60 C          33.3906  -49.1378  -52.0240 C.2       2 UNK         0.5016 
     61 O          32.4181  -48.5617  -51.5363 O.2       2 UNK        -0.5319 
     62 CA         34.8032  -48.5708  -51.7801 C.3       2 UNK         0.0286 
     63 CB         35.9413  -49.5809  -52.0524 C.3       2 UNK        -0.1963 
     64 N          35.0452  -47.3338  -52.5300 N.am      2 UNK        -0.4790 
     65 C          34.8955  -47.1259  -53.8457 C.2       1 UNK         0.5024 
     66 O          34.4837  -47.9825  -54.6304 O.2       1 UNK        -0.4888 
     67 H67        39.0224  -45.1600  -51.8999 H         1 UNK         0.0892 
     68 H68        39.0459  -44.5643  -53.5611 H         1 UNK         0.0892 
     69 H69        38.5687  -43.4890  -52.2463 H         1 UNK         0.0892 
     70 H70        37.3210  -45.3107  -54.7221 H         1 UNK         0.3107 
     71 H71        35.3654  -45.8632  -55.4733 H         1 UNK         0.0773 
     72 H72        33.2127  -45.0569  -54.4551 H         1 UNK         0.0680 
     73 H73        34.0898  -44.4862  -53.0644 H         1 UNK         0.0680 
     74 H74        33.7924  -40.9216  -54.3427 H         1 UNK         0.0650 
     75 H75        34.0981  -41.9385  -52.9552 H         1 UNK         0.0650 
     76 H76        32.2779  -43.1421  -51.9212 H         1 UNK         0.1397 
     77 H77        28.3754  -43.1011  -53.6968 H         1 UNK         0.1363 
     78 H78        31.7030  -41.3644  -55.7775 H         1 UNK         0.1355 
     79 H79        28.9983  -40.7031  -56.0748 H         1 UNK         0.0707 
     80 H80        27.9945  -42.1114  -55.8280 H         1 UNK         0.0707 
     81 H81        29.9075  -44.8428  -57.8343 H         1 UNK         0.1034 
     82 H82        28.9634  -44.4525  -56.4319 H         1 UNK         0.1034 
     83 H83        27.1523  -43.6281  -58.1914 H         1 UNK         0.0482 
     84 H84        26.6648  -46.2323  -60.0336 H         1 UNK         0.3460 
     85 H85        27.5242  -45.7346  -61.4694 H         1 UNK         0.3460 
     86 H86        27.6052  -46.3780  -57.2682 H         1 UNK         0.2989 
     87 H87        25.5498  -47.1482  -56.0265 H         1 UNK         0.0559 
     88 H88        23.2745  -46.1539  -56.2740 H         1 UNK         0.0848 
     89 H89        23.1060  -46.8999  -57.8583 H         1 UNK         0.0848 
     90 H90        23.2213  -47.9031  -56.4125 H         1 UNK         0.0848 
     91 H91        25.7894  -49.0224  -57.2206 H         1 UNK         0.3144 
     92 H92        24.9699  -50.2673  -59.9585 H         1 UNK         0.0727 
     93 H93        27.0730  -50.7078  -61.2727 H         1 UNK         0.0790 
     94 H94        27.7279  -49.1697  -60.7095 H         1 UNK         0.0790 
     95 H95        26.2935  -49.2001  -61.7189 H         1 UNK         0.0790 
     96 H96        25.8508  -51.4236  -58.3141 H         1 UNK         0.3215 
     97 H97        27.2096  -52.4236  -56.9773 H         1 UNK         0.0863 
     98 H98        29.5336  -52.6444  -57.8359 H         1 UNK         0.0808 
     99 H99        30.0770  -51.3619  -56.7670 H         1 UNK         0.0808 
    100 H100       29.4811  -52.8764  -56.0949 H         1 UNK         0.0808 
    101 H101       28.4523  -50.8180  -54.9698 H         1 UNK         0.3118 
    102 H102       25.3940  -49.4689  -53.6059 H         1 UNK         0.0546 
    103 H103       25.7227  -51.7975  -52.7855 H         1 UNK         0.0828 
    104 H104       26.3777  -50.6297  -51.6494 H         1 UNK         0.0828 
    105 H105       27.4612  -51.5435  -52.6960 H         1 UNK         0.0828 
    106 H106       28.3878  -49.3087  -53.5585 H         1 UNK         0.3005 
    107 H107       28.3161  -45.7957  -53.6807 H         1 UNK         0.1257 
    108 H108       28.9237  -47.5330  -51.2290 H         1 UNK         0.0775 
    109 H109       27.9613  -46.0829  -51.2315 H         1 UNK         0.0775 
    110 H110       28.6359  -43.8598  -51.4198 H         1 UNK         0.0840 
    111 H111       30.0643  -43.3677  -50.5512 H         1 UNK         0.0840 
    112 H112       30.4451  -47.6509  -53.3681 H         1 UNK         0.2987 
    113 H113       30.5348  -49.0374  -56.5456 H         1 UNK         0.0785 
    114 H114       31.4134  -46.8683  -57.3439 H         1 UNK         0.0798 
    115 H115       32.7406  -47.9586  -56.9817 H         1 UNK         0.0798 
    116 H116       32.3326  -46.6590  -55.8621 H         1 UNK         0.0798 
    117 H117       32.6525  -48.9382  -54.7081 H         1 UNK         0.3079 
    118 H118       31.4981  -51.0949  -52.2061 H         1 UNK         0.0794 
    119 H119       31.4704  -52.8353  -53.9994 H         1 UNK         0.0786 
    120 H120       32.9580  -52.9089  -53.0714 H         1 UNK         0.0786 
    121 H121       32.9536  -52.1810  -54.6791 H         1 UNK         0.0786 
    122 H122       34.1506  -50.6228  -53.1646 H         1 UNK         0.3032 
    123 H123       34.8419  -48.3076  -50.7216 H         1 UNK         0.1094 
    124 H124       36.9028  -49.1731  -51.7399 H         1 UNK         0.0794 
    125 H125       35.7931  -50.5053  -51.4921 H         1 UNK         0.0794 
    126 H126       36.0265  -49.8384  -53.1087 H         1 UNK         0.0794 
    127 H127       35.3877  -46.5411  -51.9898 H         1 UNK         0.3016 
@<TRIPOS>BOND
     1    1    2 1    
     2    1   67 1    
     3    1   68 1    
     4    1   69 1    
     5    2    3 2    
     6    2    4 am   BACKBONE|DICT|INTERRES
     7    4    5 1    
     8    4   70 1    
     9    5    6 1    
    10    5   65 1    
    11    5   71 1    
    12    6    7 1    
    13    6   72 1    
    14    6   73 1    
    15    7    8 1    
    16    8    9 1    
    17    8   74 1    
    18    8   75 1    
    19    9   10 ar   
    20    9   14 ar   
    21   10   11 ar   
    22   10   76 1    
    23   11   12 ar   
    24   11   48 1    
    25   12   13 ar   
    26   12   77 1    
    27   13   14 ar   
    28   13   15 1    
    29   14   78 1    
    30   15   16 1    
    31   15   79 1    
    32   15   80 1    
    33   16   17 1    
    34   17   18 1    
    35   17   81 1    
    36   17   82 1    
    37   18   19 1    
    38   18   22 1    
    39   18   83 1    
    40   19   20 am   BACKBONE|DICT|INTERRES
    41   19   21 2    
    42   20   84 1    
    43   20   85 1    
    44   22   23 am   BACKBONE|DICT|INTERRES
    45   22   86 1    
    46   23   24 2    
    47   23   25 1    
    48   25   26 1    
    49   25   27 1    
    50   25   87 1    
    51   26   88 1    
    52   26   89 1    
    53   26   90 1    
    54   27   28 am   BACKBONE|DICT|INTERRES
    55   27   91 1    
    56   28   29 2    
    57   28   30 1    
    58   30   31 1    
    59   30   32 1    
    60   30   92 1    
    61   31   93 1    
    62   31   94 1    
    63   31   95 1    
    64   32   33 am   BACKBONE|DICT|INTERRES
    65   32   96 1    
    66   33   34 2    
    67   33   35 1    
    68   35   36 1    
    69   35   37 1    
    70   35   97 1    
    71   36   98 1    
    72   36   99 1    
    73   36  100 1    
    74   37   38 am   BACKBONE|DICT|INTERRES
    75   37  101 1    
    76   38   39 2    
    77   38   40 1    
    78   40   41 1    
    79   40   42 1    
    80   40  102 1    
    81   41  103 1    
    82   41  104 1    
    83   41  105 1    
    84   42   43 am   BACKBONE|DICT|INTERRES
    85   42  106 1    
    86   43   44 2    
    87   43   45 1    
    88   45   46 1    
    89   45   49 1    
    90   45  107 1    
    91   46   47 1    
    92   46  108 1    
    93   46  109 1    
    94   47   48 1    
    95   48  110 1    
    96   48  111 1    
    97   49   50 am   BACKBONE|DICT|INTERRES
    98   49  112 1    
    99   50   51 2    
   100   50   52 1    
   101   52   53 1    
   102   52   54 1    
   103   52  113 1    
   104   53  114 1    
   105   53  115 1    
   106   53  116 1    
   107   54   55 am   BACKBONE|DICT|INTERRES
   108   54  117 1    
   109   55   56 2    
   110   55   57 1    
   111   57   58 1    
   112   57   59 1    
   113   57  118 1    
   114   58  119 1    
   115   58  120 1    
   116   58  121 1    
   117   59   60 am   BACKBONE|DICT|INTERRES
   118   59  122 1    
   119   60   61 2    
   120   60   62 1    
   121   62   63 1    
   122   62   64 1    
   123   62  123 1    
   124   63  124 1    
   125   63  125 1    
   126   63  126 1    
   127   64   65 am   BACKBONE|DICT|INTERRES
   128   64  127 1    
   129   65   66 2    
@<TRIPOS>SUBSTRUCTURE
     1 UNK         1 GROUP             0       ****    0 ROOT    
