@<TRIPOS>MOLECULE
3R134
127   129    1
SMALL
USER_CHARGES


@<TRIPOS>ATOM
      1 CA         33.1301  -46.3945  -51.0491 C.3       0 UNK        -0.1968 
      2 C          34.2878  -46.1228  -51.9989 C.2       0 UNK         0.4852 
      3 O          35.4496  -46.2689  -51.6141 O.2       0 UNK        -0.5359 
      4 N          33.9822  -45.7245  -53.2397 N.am      1 UNK        -0.4300 
      5 CA         34.9426  -45.3782  -54.2922 C.3       1 UNK         0.0863 
      6 C6         34.3114  -44.4048  -55.3247 C.3       11 UNK        -0.0953 
      7 S7         34.3181  -42.6497  -54.8147 S.3       11 UNK        -0.2369 
      8 C8         33.2948  -42.5804  -53.3000 C.3       11 UNK         0.0226 
      9 C9         31.8442  -43.0511  -53.4284 C.ar      11 UNK        -0.0699 
     10 C10        31.1475  -43.3803  -52.2611 C.ar      11 UNK        -0.0804 
     11 C11        29.8076  -43.7774  -52.3100 C.ar      11 UNK        -0.0871 
     12 C12        29.1617  -43.8638  -53.5466 C.ar      11 UNK        -0.1008 
     13 C13        29.8466  -43.5500  -54.7231 C.ar      11 UNK        -0.0735 
     14 C14        31.1773  -43.1283  -54.6574 C.ar      11 UNK        -0.0945 
     15 C15        29.1626  -43.6811  -56.0721 C.3       11 UNK         0.0169 
     16 S16        28.3299  -42.1386  -56.5587 S.3       11 UNK        -0.2669 
     17 C17        28.2927  -42.3241  -58.3763 C.3       11 UNK        -0.0850 
     18 CA         26.9840  -42.9504  -58.9257 C.3       10 UNK         0.0855 
     19 C          27.0381  -43.0083  -60.4815 C.2       10 UNK         0.5543 
     20 N          27.2343  -44.1710  -61.0948 N.am      10 UNK        -0.7343 
     21 O          26.9027  -41.9789  -61.1378 O.2       10 UNK        -0.5027 
     22 N          26.6887  -44.2452  -58.2947 N.am      10 UNK        -0.4495 
     23 C          25.5292  -44.9051  -58.3938 C.2       10 UNK         0.4903 
     24 O          24.5156  -44.4217  -58.9006 O.2       10 UNK        -0.4860 
     25 CA         25.4844  -46.3444  -57.8381 C.3       9 UNK         0.0227 
     26 CB         24.6664  -47.2826  -58.7494 C.3       9 UNK        -0.1964 
     27 N          26.7908  -46.9517  -57.5384 N.am      9 UNK        -0.4231 
     28 C          27.8131  -47.1810  -58.3793 C.2       9 UNK         0.5014 
     29 O          27.8533  -46.7773  -59.5430 O.2       9 UNK        -0.5270 
     30 CA         28.9879  -48.0061  -57.8232 C.3       8 UNK         0.0284 
     31 CB         29.9113  -47.1451  -56.9454 C.3       8 UNK        -0.1977 
     32 N          28.5368  -49.1698  -57.0582 N.am      8 UNK        -0.4342 
     33 C          27.8881  -50.2229  -57.5769 C.2       8 UNK         0.5039 
     34 O          27.6685  -50.3757  -58.7790 O.2       8 UNK        -0.5547 
     35 CA         27.3790  -51.2740  -56.5803 C.3       7 UNK         0.0281 
     36 CB         28.5058  -52.2371  -56.1691 C.3       7 UNK        -0.1963 
     37 N          26.7996  -50.6378  -55.3950 N.am      7 UNK        -0.4444 
     38 C          25.5569  -50.1362  -55.3442 C.2       7 UNK         0.5104 
     39 O          24.7436  -50.2316  -56.2631 O.2       7 UNK        -0.5100 
     40 CA         25.1375  -49.4076  -54.0537 C.3       6 UNK         0.0396 
     41 CB         24.3521  -50.3581  -53.1361 C.3       6 UNK        -0.1801 
     42 N          26.2612  -48.8379  -53.3057 N.am      6 UNK        -0.4747 
     43 C          26.9705  -47.7665  -53.6899 C.2       6 UNK         0.5012 
     44 O          26.7531  -47.1332  -54.7222 O.2       6 UNK        -0.5003 
     45 CA         28.1641  -47.3749  -52.7964 C.3       5 UNK         0.0782 
     46 C46        27.6890  -46.4826  -51.6259 C.3       11 UNK        -0.0868 
     47 S47        29.0743  -45.8531  -50.6175 S.3       11 UNK        -0.2515 
     48 C48        29.0576  -44.0780  -51.0203 C.3       11 UNK         0.0199 
     49 N          28.9264  -48.5398  -52.3274 N.am      5 UNK        -0.4607 
     50 C          29.4987  -49.4513  -53.1215 C.2       4 UNK         0.5031 
     51 O          29.3754  -49.4655  -54.3486 O.2       4 UNK        -0.5119 
     52 CA         30.3037  -50.5619  -52.4297 C.3       4 UNK         0.0263 
     53 CB         29.4223  -51.8019  -52.2098 C.3       4 UNK        -0.1967 
     54 N          31.4759  -50.9325  -53.2250 N.am      4 UNK        -0.4237 
     55 C          32.5039  -50.1080  -53.4587 C.2       3 UNK         0.4908 
     56 O          32.6244  -48.9950  -52.9363 O.2       3 UNK        -0.5102 
     57 CA         33.5622  -50.5934  -54.4554 C.3       3 UNK         0.0241 
     58 CB         33.0099  -50.5657  -55.8954 C.3       3 UNK        -0.1971 
     59 N          34.7013  -49.6938  -54.3322 N.am      3 UNK        -0.4139 
     60 C          35.9343  -49.8494  -54.8197 C.2       2 UNK         0.5016 
     61 O          36.3003  -50.8459  -55.4458 O.2       2 UNK        -0.5319 
     62 CA         36.9316  -48.7024  -54.5422 C.3       2 UNK         0.0286 
     63 CB         37.9428  -48.5121  -55.6931 C.3       2 UNK        -0.1963 
     64 N          36.2949  -47.4209  -54.1882 N.am      2 UNK        -0.4790 
     65 C          35.4824  -46.6688  -54.9479 C.2       1 UNK         0.5024 
     66 O          35.1365  -46.9749  -56.0902 O.2       1 UNK        -0.4888 
     67 H67        33.1384  -45.6780  -50.2285 H         1 UNK         0.0892 
     68 H68        32.1659  -46.3252  -51.5534 H         1 UNK         0.0892 
     69 H69        33.2163  -47.3970  -50.6310 H         1 UNK         0.0892 
     70 H70        33.0101  -45.6553  -53.5049 H         1 UNK         0.3107 
     71 H71        35.8009  -44.8762  -53.8398 H         1 UNK         0.0773 
     72 H72        33.3005  -44.7158  -55.5914 H         1 UNK         0.0680 
     73 H73        34.8750  -44.4210  -56.2596 H         1 UNK         0.0680 
     74 H74        33.2764  -41.5427  -52.9652 H         1 UNK         0.0650 
     75 H75        33.8029  -43.1349  -52.5110 H         1 UNK         0.0650 
     76 H76        31.6468  -43.3095  -51.3041 H         1 UNK         0.1397 
     77 H77        28.1258  -44.1692  -53.5971 H         1 UNK         0.1363 
     78 H78        31.6859  -42.8614  -55.5728 H         1 UNK         0.1355 
     79 H79        29.9038  -43.9603  -56.8217 H         1 UNK         0.0707 
     80 H80        28.4313  -44.4897  -56.0405 H         1 UNK         0.0707 
     81 H81        28.4273  -41.3264  -58.7992 H         1 UNK         0.1034 
     82 H82        29.1615  -42.8963  -58.7067 H         1 UNK         0.1034 
     83 H83        26.1640  -42.2768  -58.6692 H         1 UNK         0.0482 
     84 H84        27.3649  -45.0228  -60.5600 H         1 UNK         0.3460 
     85 H85        27.2670  -44.1997  -62.1013 H         1 UNK         0.3460 
     86 H86        27.4689  -44.7266  -57.8786 H         1 UNK         0.2989 
     87 H87        24.9643  -46.2783  -56.8816 H         1 UNK         0.0559 
     88 H88        25.1031  -47.3571  -59.7460 H         1 UNK         0.0848 
     89 H89        23.6424  -46.9265  -58.8679 H         1 UNK         0.0848 
     90 H90        24.6101  -48.2886  -58.3333 H         1 UNK         0.0848 
     91 H91        26.8955  -47.2456  -56.5688 H         1 UNK         0.3144 
     92 H92        29.5691  -48.3698  -58.6732 H         1 UNK         0.0727 
     93 H93        29.3997  -46.7760  -56.0561 H         1 UNK         0.0790 
     94 H94        30.2842  -46.2834  -57.4998 H         1 UNK         0.0790 
     95 H95        30.7801  -47.7135  -56.6121 H         1 UNK         0.0790 
     96 H96        28.7409  -49.1741  -56.0602 H         1 UNK         0.3215 
     97 H97        26.6044  -51.8614  -57.0791 H         1 UNK         0.0863 
     98 H98        28.1439  -52.9985  -55.4782 H         1 UNK         0.0808 
     99 H99        29.3384  -51.7186  -55.6940 H         1 UNK         0.0808 
    100 H100       28.9058  -52.7563  -57.0409 H         1 UNK         0.0808 
    101 H101       27.4261  -50.4588  -54.6222 H         1 UNK         0.3118 
    102 H102       24.4738  -48.5895  -54.3422 H         1 UNK         0.0546 
    103 H103       24.9654  -51.1946  -52.7988 H         1 UNK         0.0828 
    104 H104       23.4888  -50.7766  -53.6556 H         1 UNK         0.0828 
    105 H105       23.9755  -49.8390  -52.2546 H         1 UNK         0.0828 
    106 H106       26.5209  -49.3014  -52.4466 H         1 UNK         0.3005 
    107 H107       28.8408  -46.7873  -53.4209 H         1 UNK         0.1257 
    108 H108       27.0249  -47.0429  -50.9649 H         1 UNK         0.0775 
    109 H109       27.0974  -45.6434  -51.9958 H         1 UNK         0.0775 
    110 H110       28.0322  -43.7104  -51.0799 H         1 UNK         0.0840 
    111 H111       29.5160  -43.5347  -50.1924 H         1 UNK         0.0840 
    112 H112       29.0778  -48.5914  -51.3302 H         1 UNK         0.2987 
    113 H113       30.6506  -50.1982  -51.4599 H         1 UNK         0.0785 
    114 H114       28.5519  -51.5608  -51.5982 H         1 UNK         0.0798 
    115 H115       29.9697  -52.5900  -51.6923 H         1 UNK         0.0798 
    116 H116       29.0552  -52.2122  -53.1510 H         1 UNK         0.0798 
    117 H117       31.4359  -51.8164  -53.7106 H         1 UNK         0.3079 
    118 H118       33.8711  -51.6050  -54.1849 H         1 UNK         0.0794 
    119 H119       32.1383  -51.2128  -56.0000 H         1 UNK         0.0786 
    120 H120       33.7522  -50.9097  -56.6156 H         1 UNK         0.0786 
    121 H121       32.7050  -49.5594  -56.1867 H         1 UNK         0.0786 
    122 H122       34.4882  -48.8610  -53.7952 H         1 UNK         0.3032 
    123 H123       37.4946  -49.0129  -53.6604 H         1 UNK         0.1094 
    124 H124       38.6497  -47.7121  -55.4728 H         1 UNK         0.0794 
    125 H125       37.4463  -48.2729  -56.6339 H         1 UNK         0.0794 
    126 H126       38.5256  -49.4194  -55.8570 H         1 UNK         0.0794 
    127 H127       36.4380  -47.1050  -53.2326 H         1 UNK         0.3016 
@<TRIPOS>BOND
     1    1    2 1    
     2    1   67 1    
     3    1   68 1    
     4    1   69 1    
     5    2    3 2    
     6    2    4 am   BACKBONE|DICT|INTERRES
     7    4    5 1    
     8    4   70 1    
     9    5    6 1    
    10    5   65 1    
    11    5   71 1    
    12    6    7 1    
    13    6   72 1    
    14    6   73 1    
    15    7    8 1    
    16    8    9 1    
    17    8   74 1    
    18    8   75 1    
    19    9   10 ar   
    20    9   14 ar   
    21   10   11 ar   
    22   10   76 1    
    23   11   12 ar   
    24   11   48 1    
    25   12   13 ar   
    26   12   77 1    
    27   13   14 ar   
    28   13   15 1    
    29   14   78 1    
    30   15   16 1    
    31   15   79 1    
    32   15   80 1    
    33   16   17 1    
    34   17   18 1    
    35   17   81 1    
    36   17   82 1    
    37   18   19 1    
    38   18   22 1    
    39   18   83 1    
    40   19   20 am   BACKBONE|DICT|INTERRES
    41   19   21 2    
    42   20   84 1    
    43   20   85 1    
    44   22   23 am   BACKBONE|DICT|INTERRES
    45   22   86 1    
    46   23   24 2    
    47   23   25 1    
    48   25   26 1    
    49   25   27 1    
    50   25   87 1    
    51   26   88 1    
    52   26   89 1    
    53   26   90 1    
    54   27   28 am   BACKBONE|DICT|INTERRES
    55   27   91 1    
    56   28   29 2    
    57   28   30 1    
    58   30   31 1    
    59   30   32 1    
    60   30   92 1    
    61   31   93 1    
    62   31   94 1    
    63   31   95 1    
    64   32   33 am   BACKBONE|DICT|INTERRES
    65   32   96 1    
    66   33   34 2    
    67   33   35 1    
    68   35   36 1    
    69   35   37 1    
    70   35   97 1    
    71   36   98 1    
    72   36   99 1    
    73   36  100 1    
    74   37   38 am   BACKBONE|DICT|INTERRES
    75   37  101 1    
    76   38   39 2    
    77   38   40 1    
    78   40   41 1    
    79   40   42 1    
    80   40  102 1    
    81   41  103 1    
    82   41  104 1    
    83   41  105 1    
    84   42   43 am   BACKBONE|DICT|INTERRES
    85   42  106 1    
    86   43   44 2    
    87   43   45 1    
    88   45   46 1    
    89   45   49 1    
    90   45  107 1    
    91   46   47 1    
    92   46  108 1    
    93   46  109 1    
    94   47   48 1    
    95   48  110 1    
    96   48  111 1    
    97   49   50 am   BACKBONE|DICT|INTERRES
    98   49  112 1    
    99   50   51 2    
   100   50   52 1    
   101   52   53 1    
   102   52   54 1    
   103   52  113 1    
   104   53  114 1    
   105   53  115 1    
   106   53  116 1    
   107   54   55 am   BACKBONE|DICT|INTERRES
   108   54  117 1    
   109   55   56 2    
   110   55   57 1    
   111   57   58 1    
   112   57   59 1    
   113   57  118 1    
   114   58  119 1    
   115   58  120 1    
   116   58  121 1    
   117   59   60 am   BACKBONE|DICT|INTERRES
   118   59  122 1    
   119   60   61 2    
   120   60   62 1    
   121   62   63 1    
   122   62   64 1    
   123   62  123 1    
   124   63  124 1    
   125   63  125 1    
   126   63  126 1    
   127   64   65 am   BACKBONE|DICT|INTERRES
   128   64  127 1    
   129   65   66 2    
@<TRIPOS>SUBSTRUCTURE
     1 UNK         1 GROUP             0       ****    0 ROOT    
