@<TRIPOS>MOLECULE
3R134
127   129    1
SMALL
USER_CHARGES


@<TRIPOS>ATOM
      1 CA         30.3353  -45.8184  -49.7773 C.3       0 UNK        -0.1968 
      2 C          31.4218  -45.6832  -50.8339 C.2       0 UNK         0.4852 
      3 O          31.1787  -46.0005  -51.9968 O.2       0 UNK        -0.5359 
      4 N          32.6129  -45.2188  -50.4304 N.am      1 UNK        -0.4300 
      5 CA         33.8184  -44.9854  -51.2418 C.3       1 UNK         0.0863 
      6 C6         33.6146  -44.0368  -52.4523 C.3       11 UNK        -0.0953 
      7 S7         32.9955  -42.3897  -51.9712 S.3       11 UNK        -0.2369 
      8 C8         33.3979  -41.4152  -53.4560 C.3       11 UNK         0.0226 
      9 C9         32.5253  -41.8018  -54.6420 C.ar      11 UNK        -0.0699 
     10 C10        32.9167  -42.8396  -55.4928 C.ar      11 UNK        -0.0804 
     11 C11        32.1104  -43.2210  -56.5683 C.ar      11 UNK        -0.0871 
     12 C12        30.9300  -42.5157  -56.8214 C.ar      11 UNK        -0.1008 
     13 C13        30.5317  -41.4675  -55.9887 C.ar      11 UNK        -0.0735 
     14 C14        31.3293  -41.1212  -54.8929 C.ar      11 UNK        -0.0945 
     15 C15        29.2566  -40.6913  -56.2881 C.3       11 UNK         0.0169 
     16 S16        27.7770  -41.4968  -55.5942 S.3       11 UNK        -0.2669 
     17 C17        27.2651  -42.6456  -56.9246 C.3       11 UNK        -0.0850 
     18 CA         27.3207  -44.1403  -56.5060 C.3       10 UNK         0.0855 
     19 C          26.2558  -44.5029  -55.4394 C.2       10 UNK         0.5543 
     20 N          26.6306  -44.5501  -54.1682 N.am      10 UNK        -0.7343 
     21 O          25.0844  -44.7066  -55.7539 O.2       10 UNK        -0.5027 
     22 N          27.1716  -45.0373  -57.6578 N.am      10 UNK        -0.4495 
     23 C          28.1365  -45.3510  -58.5244 C.2       10 UNK         0.4903 
     24 O          29.2468  -44.8259  -58.5143 O.2       10 UNK        -0.4860 
     25 CA         27.8294  -46.4451  -59.5637 C.3       9 UNK         0.0227 
     26 CB         29.0270  -46.7261  -60.4921 C.3       9 UNK        -0.1964 
     27 N          27.4119  -47.7122  -58.9573 N.am      9 UNK        -0.4231 
     28 C          26.1705  -47.9896  -58.5401 C.2       9 UNK         0.5014 
     29 O          25.2736  -47.1492  -58.4559 O.2       9 UNK        -0.5270 
     30 CA         25.8577  -49.4563  -58.2281 C.3       8 UNK         0.0284 
     31 CB         26.4037  -50.4161  -59.3089 C.3       8 UNK        -0.1977 
     32 N          26.3356  -49.8481  -56.9025 N.am      8 UNK        -0.4342 
     33 C          25.8210  -50.8784  -56.2148 C.2       8 UNK         0.5039 
     34 O          24.8393  -51.5201  -56.5953 O.2       8 UNK        -0.5547 
     35 CA         26.5053  -51.3179  -54.9094 C.3       7 UNK         0.0281 
     36 CB         27.2129  -52.6680  -55.1157 C.3       7 UNK        -0.1963 
     37 N          27.4666  -50.3472  -54.3860 N.am      7 UNK        -0.4444 
     38 C          27.1277  -49.2963  -53.6281 C.2       7 UNK         0.5104 
     39 O          25.9690  -49.0282  -53.3077 O.2       7 UNK        -0.5100 
     40 CA         28.2705  -48.3885  -53.1425 C.3       6 UNK         0.0396 
     41 CB         28.9293  -48.9890  -51.8910 C.3       6 UNK        -0.1801 
     42 N          29.3037  -48.1221  -54.1460 N.am      6 UNK        -0.4747 
     43 C          29.1008  -47.5843  -55.3567 C.2       6 UNK         0.5012 
     44 O          27.9872  -47.3507  -55.8190 O.2       6 UNK        -0.5003 
     45 CA         30.3520  -47.3321  -56.2162 C.3       5 UNK         0.0782 
     46 C46        31.2324  -46.2014  -55.6257 C.3       11 UNK        -0.0868 
     47 S47        32.7979  -45.9400  -56.5327 S.3       11 UNK        -0.2515 
     48 C48        32.5104  -44.3921  -57.4588 C.3       11 UNK         0.0199 
     49 N          31.0622  -48.5950  -56.3925 N.am      5 UNK        -0.4607 
     50 C          30.6687  -49.5635  -57.2288 C.2       4 UNK         0.5031 
     51 O          29.7212  -49.4508  -58.0099 O.2       4 UNK        -0.5119 
     52 CA         31.4552  -50.8853  -57.1756 C.3       4 UNK         0.0263 
     53 CB         32.5636  -50.8891  -58.2401 C.3       4 UNK        -0.1967 
     54 N          32.0429  -51.1642  -55.8594 N.am      4 UNK        -0.4237 
     55 C          31.3307  -51.4190  -54.7519 C.2       3 UNK         0.4908 
     56 O          30.1018  -51.4543  -54.7212 O.2       3 UNK        -0.5102 
     57 CA         32.1188  -51.6200  -53.4464 C.3       3 UNK         0.0241 
     58 CB         32.6886  -53.0457  -53.3698 C.3       3 UNK        -0.1971 
     59 N          33.1939  -50.6418  -53.2364 N.am      3 UNK        -0.4139 
     60 C          33.0173  -49.3142  -53.1952 C.2       2 UNK         0.5016 
     61 O          31.9388  -48.7608  -53.4152 O.2       2 UNK        -0.5319 
     62 CA         34.2484  -48.4574  -52.8885 C.3       2 UNK         0.0286 
     63 CB         35.1151  -48.2732  -54.1480 C.3       2 UNK        -0.1963 
     64 N          33.7940  -47.1593  -52.3951 N.am      2 UNK        -0.4790 
     65 C          34.5116  -46.2947  -51.6726 C.2       1 UNK         0.5024 
     66 O          35.6791  -46.4976  -51.3355 O.2       1 UNK        -0.4888 
     67 H67        30.1690  -46.8688  -49.5414 H         1 UNK         0.0892 
     68 H68        30.5968  -45.2982  -48.8560 H         1 UNK         0.0892 
     69 H69        29.3998  -45.3992  -50.1468 H         1 UNK         0.0892 
     70 H70        32.7305  -45.0032  -49.4502 H         1 UNK         0.3107 
     71 H71        34.5175  -44.4880  -50.5672 H         1 UNK         0.0773 
     72 H72        32.9229  -44.4702  -53.1762 H         1 UNK         0.0680 
     73 H73        34.5614  -43.9009  -52.9783 H         1 UNK         0.0680 
     74 H74        34.4533  -41.5397  -53.7032 H         1 UNK         0.0650 
     75 H75        33.2637  -40.3572  -53.2263 H         1 UNK         0.0650 
     76 H76        33.8384  -43.3724  -55.3041 H         1 UNK         0.1397 
     77 H77        30.3152  -42.7804  -57.6681 H         1 UNK         0.1363 
     78 H78        31.0237  -40.3158  -54.2390 H         1 UNK         0.1355 
     79 H79        29.1417  -40.5474  -57.3635 H         1 UNK         0.0707 
     80 H80        29.3305  -39.6892  -55.8628 H         1 UNK         0.0707 
     81 H81        26.2569  -42.3790  -57.2469 H         1 UNK         0.1034 
     82 H82        27.8999  -42.4815  -57.7955 H         1 UNK         0.1034 
     83 H83        28.3037  -44.3367  -56.0717 H         1 UNK         0.0482 
     84 H84        25.9459  -44.7727  -53.4638 H         1 UNK         0.3460 
     85 H85        27.5817  -44.3518  -53.9019 H         1 UNK         0.3460 
     86 H86        26.2988  -45.5574  -57.6949 H         1 UNK         0.2989 
     87 H87        27.0145  -46.0699  -60.1864 H         1 UNK         0.0559 
     88 H88        29.3492  -45.8181  -61.0038 H         1 UNK         0.0848 
     89 H89        28.7711  -47.4544  -61.2618 H         1 UNK         0.0848 
     90 H90        29.8846  -47.1112  -59.9383 H         1 UNK         0.0848 
     91 H91        28.1198  -48.4371  -58.8888 H         1 UNK         0.3144 
     92 H92        24.7680  -49.5339  -58.2403 H         1 UNK         0.0727 
     93 H93        25.9843  -51.4160  -59.1967 H         1 UNK         0.0790 
     94 H94        27.4892  -50.5093  -59.2645 H         1 UNK         0.0790 
     95 H95        26.1420  -50.0717  -60.3104 H         1 UNK         0.0790 
     96 H96        27.0878  -49.2966  -56.5033 H         1 UNK         0.3215 
     97 H97        25.7180  -51.4670  -54.1670 H         1 UNK         0.0863 
     98 H98        27.6934  -53.0106  -54.1991 H         1 UNK         0.0808 
     99 H99        27.9759  -52.6072  -55.8929 H         1 UNK         0.0808 
    100 H100       26.5035  -53.4397  -55.4175 H         1 UNK         0.0808 
    101 H101       28.4513  -50.5338  -54.5679 H         1 UNK         0.3118 
    102 H102       27.8354  -47.4248  -52.8706 H         1 UNK         0.0546 
    103 H103       29.3937  -49.9522  -52.1055 H         1 UNK         0.0828 
    104 H104       28.1973  -49.1448  -51.0976 H         1 UNK         0.0828 
    105 H105       29.7030  -48.3308  -51.4977 H         1 UNK         0.0828 
    106 H106       30.2646  -48.3156  -53.8605 H         1 UNK         0.3005 
    107 H107       30.0178  -47.0013  -57.1995 H         1 UNK         0.1257 
    108 H108       31.5013  -46.4203  -54.5922 H         1 UNK         0.0775 
    109 H109       30.6653  -45.2703  -55.5908 H         1 UNK         0.0775 
    110 H110       33.4255  -44.1299  -57.9909 H         1 UNK         0.0840 
    111 H111       31.7597  -44.5780  -58.2261 H         1 UNK         0.0840 
    112 H112       31.8128  -48.7764  -55.7415 H         1 UNK         0.2987 
    113 H113       30.7533  -51.6896  -57.4067 H         1 UNK         0.0785 
    114 H114       32.1497  -50.7090  -59.2334 H         1 UNK         0.0798 
    115 H115       33.0783  -51.8495  -58.2750 H         1 UNK         0.0798 
    116 H116       33.3073  -50.1136  -58.0520 H         1 UNK         0.0798 
    117 H117       33.0499  -51.1454  -55.7918 H         1 UNK         0.3079 
    118 H118       31.4106  -51.4973  -52.6243 H         1 UNK         0.0794 
    119 H119       33.1423  -53.2400  -52.3977 H         1 UNK         0.0786 
    120 H120       33.4449  -53.2231  -54.1353 H         1 UNK         0.0786 
    121 H121       31.9015  -53.7882  -53.5107 H         1 UNK         0.0786 
    122 H122       34.1157  -51.0157  -53.0608 H         1 UNK         0.3032 
    123 H123       34.8291  -48.9519  -52.1065 H         1 UNK         0.1094 
    124 H124       34.5605  -47.7813  -54.9473 H         1 UNK         0.0794 
    125 H125       36.0005  -47.6726  -53.9393 H         1 UNK         0.0794 
    126 H126       35.4622  -49.2326  -54.5331 H         1 UNK         0.0794 
    127 H127       32.8092  -46.9540  -52.5659 H         1 UNK         0.3016 
@<TRIPOS>BOND
     1    1    2 1    
     2    1   67 1    
     3    1   68 1    
     4    1   69 1    
     5    2    3 2    
     6    2    4 am   BACKBONE|DICT|INTERRES
     7    4    5 1    
     8    4   70 1    
     9    5    6 1    
    10    5   65 1    
    11    5   71 1    
    12    6    7 1    
    13    6   72 1    
    14    6   73 1    
    15    7    8 1    
    16    8    9 1    
    17    8   74 1    
    18    8   75 1    
    19    9   10 ar   
    20    9   14 ar   
    21   10   11 ar   
    22   10   76 1    
    23   11   12 ar   
    24   11   48 1    
    25   12   13 ar   
    26   12   77 1    
    27   13   14 ar   
    28   13   15 1    
    29   14   78 1    
    30   15   16 1    
    31   15   79 1    
    32   15   80 1    
    33   16   17 1    
    34   17   18 1    
    35   17   81 1    
    36   17   82 1    
    37   18   19 1    
    38   18   22 1    
    39   18   83 1    
    40   19   20 am   BACKBONE|DICT|INTERRES
    41   19   21 2    
    42   20   84 1    
    43   20   85 1    
    44   22   23 am   BACKBONE|DICT|INTERRES
    45   22   86 1    
    46   23   24 2    
    47   23   25 1    
    48   25   26 1    
    49   25   27 1    
    50   25   87 1    
    51   26   88 1    
    52   26   89 1    
    53   26   90 1    
    54   27   28 am   BACKBONE|DICT|INTERRES
    55   27   91 1    
    56   28   29 2    
    57   28   30 1    
    58   30   31 1    
    59   30   32 1    
    60   30   92 1    
    61   31   93 1    
    62   31   94 1    
    63   31   95 1    
    64   32   33 am   BACKBONE|DICT|INTERRES
    65   32   96 1    
    66   33   34 2    
    67   33   35 1    
    68   35   36 1    
    69   35   37 1    
    70   35   97 1    
    71   36   98 1    
    72   36   99 1    
    73   36  100 1    
    74   37   38 am   BACKBONE|DICT|INTERRES
    75   37  101 1    
    76   38   39 2    
    77   38   40 1    
    78   40   41 1    
    79   40   42 1    
    80   40  102 1    
    81   41  103 1    
    82   41  104 1    
    83   41  105 1    
    84   42   43 am   BACKBONE|DICT|INTERRES
    85   42  106 1    
    86   43   44 2    
    87   43   45 1    
    88   45   46 1    
    89   45   49 1    
    90   45  107 1    
    91   46   47 1    
    92   46  108 1    
    93   46  109 1    
    94   47   48 1    
    95   48  110 1    
    96   48  111 1    
    97   49   50 am   BACKBONE|DICT|INTERRES
    98   49  112 1    
    99   50   51 2    
   100   50   52 1    
   101   52   53 1    
   102   52   54 1    
   103   52  113 1    
   104   53  114 1    
   105   53  115 1    
   106   53  116 1    
   107   54   55 am   BACKBONE|DICT|INTERRES
   108   54  117 1    
   109   55   56 2    
   110   55   57 1    
   111   57   58 1    
   112   57   59 1    
   113   57  118 1    
   114   58  119 1    
   115   58  120 1    
   116   58  121 1    
   117   59   60 am   BACKBONE|DICT|INTERRES
   118   59  122 1    
   119   60   61 2    
   120   60   62 1    
   121   62   63 1    
   122   62   64 1    
   123   62  123 1    
   124   63  124 1    
   125   63  125 1    
   126   63  126 1    
   127   64   65 am   BACKBONE|DICT|INTERRES
   128   64  127 1    
   129   65   66 2    
@<TRIPOS>SUBSTRUCTURE
     1 UNK         1 GROUP             0       ****    0 ROOT    
