@<TRIPOS>MOLECULE
3R134
127   129    1
SMALL
USER_CHARGES


@<TRIPOS>ATOM
      1 CA         37.4821  -45.4869  -47.0656 C.3       0 UNK        -0.1968 
      2 C          36.4194  -45.4001  -48.1521 C.2       0 UNK         0.4852 
      3 O          35.2681  -45.7581  -47.8988 O.2       0 UNK        -0.5359 
      4 N          36.8064  -44.9180  -49.3433 N.am      1 UNK        -0.4300 
      5 CA         36.0032  -44.7883  -50.5679 C.3       1 UNK         0.0863 
      6 C6         34.6604  -44.0346  -50.3468 C.3       11 UNK        -0.0953 
      7 S7         34.0579  -43.1844  -51.8434 S.3       11 UNK        -0.2369 
      8 C8         32.5776  -44.1746  -52.2123 C.3       11 UNK         0.0226 
      9 C9         31.9976  -43.8355  -53.5763 C.ar      11 UNK        -0.0699 
     10 C10        32.6864  -44.2055  -54.7343 C.ar      11 UNK        -0.0804 
     11 C11        32.1370  -43.9674  -55.9955 C.ar      11 UNK        -0.0871 
     12 C12        30.9047  -43.3157  -56.0959 C.ar      11 UNK        -0.1008 
     13 C13        30.1895  -42.9675  -54.9463 C.ar      11 UNK        -0.0735 
     14 C14        30.7480  -43.2171  -53.6877 C.ar      11 UNK        -0.0945 
     15 C15        28.7937  -42.3699  -55.0624 C.3       11 UNK         0.0169 
     16 S16        27.5446  -43.6587  -55.4030 S.3       11 UNK        -0.2669 
     17 C17        27.6892  -43.8584  -57.2141 C.3       11 UNK        -0.0850 
     18 CA         26.3106  -43.9734  -57.9141 C.3       10 UNK         0.0855 
     19 C          26.4248  -43.7277  -59.4501 C.2       10 UNK         0.5543 
     20 N          25.9404  -44.6056  -60.3204 N.am      10 UNK        -0.7343 
     21 O          26.9588  -42.7021  -59.8653 O.2       10 UNK        -0.5027 
     22 N          25.6309  -45.2285  -57.5539 N.am      10 UNK        -0.4495 
     23 C          24.3019  -45.3919  -57.5391 C.2       10 UNK         0.4903 
     24 O          23.4990  -44.4760  -57.7268 O.2       10 UNK        -0.4860 
     25 CA         23.7899  -46.8261  -57.2919 C.3       9 UNK         0.0227 
     26 CB         22.2998  -47.0013  -57.6538 C.3       9 UNK        -0.1964 
     27 N          24.6019  -47.8566  -57.9534 N.am      9 UNK        -0.4231 
     28 C          24.8899  -47.9533  -59.2632 C.2       9 UNK         0.5014 
     29 O          24.4791  -47.1561  -60.1072 O.2       9 UNK        -0.5270 
     30 CA         25.8169  -49.0969  -59.7203 C.3       8 UNK         0.0284 
     31 CB         27.0181  -48.5441  -60.5092 C.3       8 UNK        -0.1977 
     32 N          26.3183  -49.8858  -58.5944 N.am      8 UNK        -0.4342 
     33 C          25.7688  -51.0208  -58.1396 C.2       8 UNK         0.5039 
     34 O          24.8238  -51.5912  -58.6849 O.2       8 UNK        -0.5547 
     35 CA         26.3466  -51.6037  -56.8352 C.3       7 UNK         0.0281 
     36 CB         27.3423  -52.7329  -57.1439 C.3       7 UNK        -0.1963 
     37 N          26.9946  -50.5934  -55.9908 N.am      7 UNK        -0.4444 
     38 C          26.3450  -49.5877  -55.3828 C.2       7 UNK         0.5104 
     39 O          25.1234  -49.4476  -55.4248 O.2       7 UNK        -0.5100 
     40 CA         27.1910  -48.5154  -54.6747 C.3       6 UNK         0.0396 
     41 CB         27.2527  -48.7906  -53.1654 C.3       6 UNK        -0.1801 
     42 N          28.5474  -48.3967  -55.2179 N.am      6 UNK        -0.4747 
     43 C          28.8326  -47.9871  -56.4661 C.2       6 UNK         0.5012 
     44 O          27.9657  -47.6379  -57.2704 O.2       6 UNK        -0.5003 
     45 CA         30.3154  -47.9880  -56.9068 C.3       5 UNK         0.0782 
     46 C46        30.8480  -46.5409  -56.8632 C.3       11 UNK        -0.0868 
     47 S47        32.5785  -46.3304  -57.4108 S.3       11 UNK        -0.2515 
     48 C48        32.8115  -44.5206  -57.2446 C.3       11 UNK         0.0199 
     49 N          31.1467  -48.9136  -56.1241 N.am      5 UNK        -0.4607 
     50 C          30.9846  -50.2459  -56.1033 C.2       4 UNK         0.5031 
     51 O          30.1345  -50.8312  -56.7740 O.2       4 UNK        -0.5119 
     52 CA         31.8717  -51.0697  -55.1494 C.3       4 UNK         0.0263 
     53 CB         33.0793  -51.6422  -55.9081 C.3       4 UNK        -0.1967 
     54 N          32.3473  -50.3313  -53.9758 N.am      4 UNK        -0.4237 
     55 C          31.5726  -49.7225  -53.0657 C.2       3 UNK         0.4908 
     56 O          30.3434  -49.7788  -53.0750 O.2       3 UNK        -0.5102 
     57 CA         32.2716  -48.8703  -51.9874 C.3       3 UNK         0.0241 
     58 CB         32.3076  -49.6244  -50.6486 C.3       3 UNK        -0.1971 
     59 N          33.6294  -48.4142  -52.3176 N.am      3 UNK        -0.4139 
     60 C          33.9812  -47.7115  -53.4028 C.2       2 UNK         0.5016 
     61 O          33.1952  -47.4099  -54.3001 O.2       2 UNK        -0.5319 
     62 CA         35.4499  -47.2600  -53.4785 C.3       2 UNK         0.0286 
     63 CB         35.8867  -46.9217  -54.9166 C.3       2 UNK        -0.1963 
     64 N          35.6778  -46.0974  -52.6170 N.am      2 UNK        -0.4790 
     65 C          35.8206  -46.1464  -51.2857 C.2       1 UNK         0.5024 
     66 O          35.8175  -47.2057  -50.6530 O.2       1 UNK        -0.4888 
     67 H67        38.4518  -45.1291  -47.4110 H         1 UNK         0.0892 
     68 H68        37.1877  -44.8879  -46.2043 H         1 UNK         0.0892 
     69 H69        37.5994  -46.5196  -46.7385 H         1 UNK         0.0892 
     70 H70        37.7784  -44.6656  -49.4584 H         1 UNK         0.3107 
     71 H71        36.6251  -44.1737  -51.2213 H         1 UNK         0.0773 
     72 H72        33.8916  -44.7011  -49.9508 H         1 UNK         0.0680 
     73 H73        34.7935  -43.2594  -49.5905 H         1 UNK         0.0680 
     74 H74        32.8294  -45.2352  -52.1886 H         1 UNK         0.0650 
     75 H75        31.8387  -44.0155  -51.4254 H         1 UNK         0.0650 
     76 H76        33.6265  -44.7296  -54.6503 H         1 UNK         0.1397 
     77 H77        30.4733  -43.1422  -57.0709 H         1 UNK         0.1363 
     78 H78        30.1957  -42.9576  -52.7950 H         1 UNK         0.1355 
     79 H79        28.5252  -41.8674  -54.1319 H         1 UNK         0.0707 
     80 H80        28.7716  -41.6001  -55.8350 H         1 UNK         0.0707 
     81 H81        28.2401  -43.0048  -57.6108 H         1 UNK         0.1034 
     82 H82        28.2955  -44.7377  -57.4276 H         1 UNK         0.1034 
     83 H83        25.7005  -43.1456  -57.5474 H         1 UNK         0.0482 
     84 H84        26.0268  -44.4106  -61.3048 H         1 UNK         0.3460 
     85 H85        25.4534  -45.4431  -60.0203 H         1 UNK         0.3460 
     86 H86        26.2277  -46.0330  -57.4102 H         1 UNK         0.2989 
     87 H87        23.8910  -47.0010  -56.2199 H         1 UNK         0.0559 
     88 H88        21.6727  -46.3218  -57.0755 H         1 UNK         0.0848 
     89 H89        21.9570  -48.0140  -57.4422 H         1 UNK         0.0848 
     90 H90        22.1136  -46.7974  -58.7089 H         1 UNK         0.0848 
     91 H91        24.9716  -48.5655  -57.3308 H         1 UNK         0.3144 
     92 H92        25.2368  -49.7342  -60.3907 H         1 UNK         0.0727 
     93 H93        27.6042  -47.8401  -59.9175 H         1 UNK         0.0790 
     94 H94        26.6887  -48.0168  -61.4056 H         1 UNK         0.0790 
     95 H95        27.6824  -49.3450  -60.8339 H         1 UNK         0.0790 
     96 H96        27.0769  -49.4672  -58.0693 H         1 UNK         0.3215 
     97 H97        25.5143  -52.0279  -56.2692 H         1 UNK         0.0863 
     98 H98        27.7450  -53.1713  -56.2307 H         1 UNK         0.0808 
     99 H99        28.1803  -52.3799  -57.7459 H         1 UNK         0.0808 
    100 H100       26.8582  -53.5353  -57.7024 H         1 UNK         0.0808 
    101 H101       28.0059  -50.6229  -55.9383 H         1 UNK         0.3118 
    102 H102       26.6939  -47.5540  -54.8223 H         1 UNK         0.0546 
    103 H103       27.6904  -49.7659  -52.9502 H         1 UNK         0.0828 
    104 H104       26.2537  -48.7807  -52.7277 H         1 UNK         0.0828 
    105 H105       27.8422  -48.0352  -52.6455 H         1 UNK         0.0828 
    106 H106       29.3049  -48.6978  -54.6136 H         1 UNK         0.3005 
    107 H107       30.3358  -48.3285  -57.9443 H         1 UNK         0.1257 
    108 H108       30.2353  -45.8926  -57.4899 H         1 UNK         0.0775 
    109 H109       30.7602  -46.1694  -55.8405 H         1 UNK         0.0775 
    110 H110       33.8791  -44.2984  -57.2175 H         1 UNK         0.0840 
    111 H111       32.4198  -44.0311  -58.1375 H         1 UNK         0.0840 
    112 H112       31.8672  -48.4865  -55.5490 H         1 UNK         0.2987 
    113 H113       31.2664  -51.9027  -54.7860 H         1 UNK         0.0785 
    114 H114       32.7568  -52.2213  -56.7747 H         1 UNK         0.0798 
    115 H115       33.6669  -52.3090  -55.2767 H         1 UNK         0.0798 
    116 H116       33.7386  -50.8523  -56.2711 H         1 UNK         0.0798 
    117 H117       33.3461  -50.2174  -53.8896 H         1 UNK         0.3079 
    118 H118       31.6616  -47.9741  -51.8565 H         1 UNK         0.0794 
    119 H119       32.6899  -48.9922  -49.8467 H         1 UNK         0.0786 
    120 H120       32.9358  -50.5143  -50.7045 H         1 UNK         0.0786 
    121 H121       31.3080  -49.9481  -50.3542 H         1 UNK         0.0786 
    122 H122       34.3367  -48.5510  -51.6051 H         1 UNK         0.3032 
    123 H123       36.0725  -48.0894  -53.1344 H         1 UNK         0.1094 
    124 H124       35.3325  -46.0799  -55.3308 H         1 UNK         0.0794 
    125 H125       36.9481  -46.6774  -54.9610 H         1 UNK         0.0794 
    126 H126       35.7226  -47.7710  -55.5814 H         1 UNK         0.0794 
    127 H127       35.6574  -45.1926  -53.0663 H         1 UNK         0.3016 
@<TRIPOS>BOND
     1    1    2 1    
     2    1   67 1    
     3    1   68 1    
     4    1   69 1    
     5    2    3 2    
     6    2    4 am   BACKBONE|DICT|INTERRES
     7    4    5 1    
     8    4   70 1    
     9    5    6 1    
    10    5   65 1    
    11    5   71 1    
    12    6    7 1    
    13    6   72 1    
    14    6   73 1    
    15    7    8 1    
    16    8    9 1    
    17    8   74 1    
    18    8   75 1    
    19    9   10 ar   
    20    9   14 ar   
    21   10   11 ar   
    22   10   76 1    
    23   11   12 ar   
    24   11   48 1    
    25   12   13 ar   
    26   12   77 1    
    27   13   14 ar   
    28   13   15 1    
    29   14   78 1    
    30   15   16 1    
    31   15   79 1    
    32   15   80 1    
    33   16   17 1    
    34   17   18 1    
    35   17   81 1    
    36   17   82 1    
    37   18   19 1    
    38   18   22 1    
    39   18   83 1    
    40   19   20 am   BACKBONE|DICT|INTERRES
    41   19   21 2    
    42   20   84 1    
    43   20   85 1    
    44   22   23 am   BACKBONE|DICT|INTERRES
    45   22   86 1    
    46   23   24 2    
    47   23   25 1    
    48   25   26 1    
    49   25   27 1    
    50   25   87 1    
    51   26   88 1    
    52   26   89 1    
    53   26   90 1    
    54   27   28 am   BACKBONE|DICT|INTERRES
    55   27   91 1    
    56   28   29 2    
    57   28   30 1    
    58   30   31 1    
    59   30   32 1    
    60   30   92 1    
    61   31   93 1    
    62   31   94 1    
    63   31   95 1    
    64   32   33 am   BACKBONE|DICT|INTERRES
    65   32   96 1    
    66   33   34 2    
    67   33   35 1    
    68   35   36 1    
    69   35   37 1    
    70   35   97 1    
    71   36   98 1    
    72   36   99 1    
    73   36  100 1    
    74   37   38 am   BACKBONE|DICT|INTERRES
    75   37  101 1    
    76   38   39 2    
    77   38   40 1    
    78   40   41 1    
    79   40   42 1    
    80   40  102 1    
    81   41  103 1    
    82   41  104 1    
    83   41  105 1    
    84   42   43 am   BACKBONE|DICT|INTERRES
    85   42  106 1    
    86   43   44 2    
    87   43   45 1    
    88   45   46 1    
    89   45   49 1    
    90   45  107 1    
    91   46   47 1    
    92   46  108 1    
    93   46  109 1    
    94   47   48 1    
    95   48  110 1    
    96   48  111 1    
    97   49   50 am   BACKBONE|DICT|INTERRES
    98   49  112 1    
    99   50   51 2    
   100   50   52 1    
   101   52   53 1    
   102   52   54 1    
   103   52  113 1    
   104   53  114 1    
   105   53  115 1    
   106   53  116 1    
   107   54   55 am   BACKBONE|DICT|INTERRES
   108   54  117 1    
   109   55   56 2    
   110   55   57 1    
   111   57   58 1    
   112   57   59 1    
   113   57  118 1    
   114   58  119 1    
   115   58  120 1    
   116   58  121 1    
   117   59   60 am   BACKBONE|DICT|INTERRES
   118   59  122 1    
   119   60   61 2    
   120   60   62 1    
   121   62   63 1    
   122   62   64 1    
   123   62  123 1    
   124   63  124 1    
   125   63  125 1    
   126   63  126 1    
   127   64   65 am   BACKBONE|DICT|INTERRES
   128   64  127 1    
   129   65   66 2    
@<TRIPOS>SUBSTRUCTURE
     1 UNK         1 GROUP             0       ****    0 ROOT    
