@<TRIPOS>MOLECULE
3R134
127   129    1
SMALL
USER_CHARGES


@<TRIPOS>ATOM
      1 CA         36.1525  -44.3097  -49.3372 C.3       0 UNK        -0.1968 
      2 C          35.9520  -45.1798  -50.5693 C.2       0 UNK         0.4852 
      3 O          36.6151  -46.2091  -50.7029 O.2       0 UNK        -0.5359 
      4 N          35.0500  -44.7667  -51.4693 N.am      1 UNK        -0.4300 
      5 CA         34.6632  -45.4884  -52.6866 C.3       1 UNK         0.0863 
      6 C6         33.8498  -44.6012  -53.6663 C.3       11 UNK        -0.0953 
      7 S7         32.5369  -43.5929  -52.8766 S.3       11 UNK        -0.2369 
      8 C8         32.6260  -42.0325  -53.8186 C.3       11 UNK         0.0226 
      9 C9         31.8243  -42.1130  -55.1105 C.ar      11 UNK        -0.0699 
     10 C10        32.2593  -42.9340  -56.1513 C.ar      11 UNK        -0.0804 
     11 C11        31.4922  -43.0954  -57.3073 C.ar      11 UNK        -0.0871 
     12 C12        30.3185  -42.3502  -57.4570 C.ar      11 UNK        -0.1008 
     13 C13        29.8953  -41.4814  -56.4451 C.ar      11 UNK        -0.0735 
     14 C14        30.6434  -41.3809  -55.2664 C.ar      11 UNK        -0.0945 
     15 C15        28.6338  -40.6453  -56.6256 C.3       11 UNK         0.0169 
     16 S16        27.1158  -41.6525  -56.6733 S.3       11 UNK        -0.2669 
     17 C17        27.1965  -42.5221  -55.0714 C.3       11 UNK        -0.0850 
     18 CA         27.5840  -44.0131  -55.2478 C.3       10 UNK         0.0855 
     19 C          27.9216  -44.6485  -53.8791 C.2       10 UNK         0.5543 
     20 N          29.1917  -44.6700  -53.5017 N.am      10 UNK        -0.7343 
     21 O          27.0380  -45.0836  -53.1433 O.2       10 UNK        -0.5027 
     22 N          26.5060  -44.7701  -55.8992 N.am      10 UNK        -0.4495 
     23 C          26.5815  -45.3447  -57.1019 C.2       10 UNK         0.4903 
     24 O          27.5609  -45.2778  -57.8468 O.2       10 UNK        -0.4860 
     25 CA         25.3379  -46.1079  -57.5709 C.3       9 UNK         0.0227 
     26 CB         24.5308  -45.2381  -58.5568 C.3       9 UNK        -0.1964 
     27 N          25.7829  -47.3546  -58.1899 N.am      9 UNK        -0.4231 
     28 C          25.0156  -48.3465  -58.6590 C.2       9 UNK         0.5014 
     29 O          23.7842  -48.3396  -58.6381 O.2       9 UNK        -0.5270 
     30 CA         25.7507  -49.5709  -59.2231 C.3       8 UNK         0.0284 
     31 CB         26.7073  -49.1871  -60.3672 C.3       8 UNK        -0.1977 
     32 N          26.5013  -50.2166  -58.1489 N.am      8 UNK        -0.4342 
     33 C          26.1506  -51.3548  -57.5342 C.2       8 UNK         0.5039 
     34 O          25.2129  -52.0687  -57.8932 O.2       8 UNK        -0.5547 
     35 CA         26.9725  -51.7709  -56.2962 C.3       7 UNK         0.0281 
     36 CB         28.0527  -52.7918  -56.6867 C.3       7 UNK        -0.1963 
     37 N          27.5985  -50.6394  -55.6041 N.am      7 UNK        -0.4444 
     38 C          26.9183  -49.6503  -55.0051 C.2       7 UNK         0.5104 
     39 O          25.6982  -49.6671  -54.8417 O.2       7 UNK        -0.5100 
     40 CA         27.7075  -48.4110  -54.5456 C.3       6 UNK         0.0396 
     41 CB         27.8442  -48.4001  -53.0153 C.3       6 UNK        -0.1801 
     42 N          29.0275  -48.2268  -55.1669 N.am      6 UNK        -0.4747 
     43 C          29.2504  -48.0636  -56.4824 C.2       6 UNK         0.5012 
     44 O          28.3778  -48.2105  -57.3382 O.2       6 UNK        -0.5003 
     45 CA         30.6744  -47.7123  -56.9376 C.3       5 UNK         0.0782 
     46 C46        30.9562  -46.2033  -56.7668 C.3       11 UNK        -0.0868 
     47 S47        32.4492  -45.6964  -57.6855 S.3       11 UNK        -0.2515 
     48 C48        31.9207  -44.0898  -58.3819 C.3       11 UNK         0.0199 
     49 N          31.6421  -48.5466  -56.2249 N.am      5 UNK        -0.4607 
     50 C          32.3908  -49.4950  -56.8024 C.2       4 UNK         0.5031 
     51 O          32.4264  -49.7029  -58.0157 O.2       4 UNK        -0.5119 
     52 CA         33.2275  -50.3916  -55.8711 C.3       4 UNK         0.0263 
     53 CB         34.6593  -49.8475  -55.7473 C.3       4 UNK        -0.1967 
     54 N          32.6465  -50.5531  -54.5346 N.am      4 UNK        -0.4237 
     55 C          31.4472  -51.1011  -54.2850 C.2       3 UNK         0.4908 
     56 O          30.7159  -51.5728  -55.1553 O.2       3 UNK        -0.5102 
     57 CA         30.9484  -51.0989  -52.8304 C.3       3 UNK         0.0241 
     58 CB         31.2082  -52.4672  -52.1802 C.3       3 UNK        -0.1971 
     59 N          31.4987  -50.0461  -51.9676 N.am      3 UNK        -0.4139 
     60 C          31.4917  -48.7238  -52.1943 C.2       2 UNK         0.5016 
     61 O          31.0749  -48.2082  -53.2358 O.2       2 UNK        -0.5319 
     62 CA         32.0402  -47.8213  -51.0671 C.3       2 UNK         0.0286 
     63 CB         32.8057  -48.5838  -49.9606 C.3       2 UNK        -0.1963 
     64 N          32.8677  -46.7200  -51.5703 N.am      2 UNK        -0.4790 
     65 C          33.9428  -46.8135  -52.3672 C.2       1 UNK         0.5024 
     66 O          34.3866  -47.8730  -52.8139 O.2       1 UNK        -0.4888 
     67 H67        35.5121  -43.4278  -49.3511 H         1 UNK         0.0892 
     68 H68        35.9258  -44.8786  -48.4359 H         1 UNK         0.0892 
     69 H69        37.1879  -43.9753  -49.2782 H         1 UNK         0.0892 
     70 H70        34.5369  -43.9122  -51.3030 H         1 UNK         0.3107 
     71 H71        35.5880  -45.7634  -53.1992 H         1 UNK         0.0773 
     72 H72        33.4029  -45.2052  -54.4588 H         1 UNK         0.0680 
     73 H73        34.5459  -43.9279  -54.1675 H         1 UNK         0.0680 
     74 H74        33.6636  -41.7756  -54.0357 H         1 UNK         0.0650 
     75 H75        32.2419  -41.2306  -53.1865 H         1 UNK         0.0650 
     76 H76        33.1799  -43.4877  -56.0471 H         1 UNK         0.1397 
     77 H77        29.7221  -42.4529  -58.3536 H         1 UNK         0.1363 
     78 H78        30.3084  -40.7292  -54.4711 H         1 UNK         0.1355 
     79 H79        28.5417  -39.9044  -55.8298 H         1 UNK         0.0707 
     80 H80        28.7105  -40.0825  -57.5569 H         1 UNK         0.0707 
     81 H81        27.9066  -42.0073  -54.4217 H         1 UNK         0.1034 
     82 H82        26.2273  -42.4330  -54.5773 H         1 UNK         0.1034 
     83 H83        28.4898  -44.0630  -55.8553 H         1 UNK         0.0482 
     84 H84        29.4264  -45.0639  -52.6057 H         1 UNK         0.3460 
     85 H85        29.9179  -44.2720  -54.0765 H         1 UNK         0.3460 
     86 H86        25.6816  -44.9103  -55.3321 H         1 UNK         0.2989 
     87 H87        24.7171  -46.3563  -56.7078 H         1 UNK         0.0559 
     88 H88        24.2821  -44.2735  -58.1120 H         1 UNK         0.0848 
     89 H89        23.5899  -45.7090  -58.8399 H         1 UNK         0.0848 
     90 H90        25.0947  -45.0394  -59.4691 H         1 UNK         0.0848 
     91 H91        26.7945  -47.4723  -58.1926 H         1 UNK         0.3144 
     92 H92        25.0006  -50.2523  -59.6302 H         1 UNK         0.0727 
     93 H93        27.1523  -50.0742  -60.8180 H         1 UNK         0.0790 
     94 H94        27.5220  -48.5452  -60.0296 H         1 UNK         0.0790 
     95 H95        26.1761  -48.6547  -61.1573 H         1 UNK         0.0790 
     96 H96        27.2648  -49.6711  -57.7562 H         1 UNK         0.3215 
     97 H97        26.2850  -52.2512  -55.5967 H         1 UNK         0.0863 
     98 H98        28.5644  -53.1824  -55.8068 H         1 UNK         0.0808 
     99 H99        28.8045  -52.3531  -57.3442 H         1 UNK         0.0808 
    100 H100       27.6164  -53.6437  -57.2100 H         1 UNK         0.0808 
    101 H101       28.6064  -50.5675  -55.6633 H         1 UNK         0.3118 
    102 H102       27.1097  -47.5429  -54.8284 H         1 UNK         0.0546 
    103 H103       28.3812  -49.2719  -52.6476 H         1 UNK         0.0828 
    104 H104       26.8632  -48.3991  -52.5385 H         1 UNK         0.0828 
    105 H105       28.3697  -47.5116  -52.6668 H         1 UNK         0.0828 
    106 H106       29.8052  -48.1252  -54.5159 H         1 UNK         0.3005 
    107 H107       30.7034  -47.9321  -58.0077 H         1 UNK         0.1257 
    108 H108       31.0796  -45.9418  -55.7140 H         1 UNK         0.0775 
    109 H109       30.1128  -45.6144  -57.1318 H         1 UNK         0.0775 
    110 H110       32.7451  -43.6612  -58.9530 H         1 UNK         0.0840 
    111 H111       31.1091  -44.2663  -59.0897 H         1 UNK         0.0840 
    112 H112       31.6635  -48.4550  -55.2151 H         1 UNK         0.2987 
    113 H113       33.2755  -51.3822  -56.3283 H         1 UNK         0.0785 
    114 H114       35.1359  -49.7815  -56.7263 H         1 UNK         0.0798 
    115 H115       35.2807  -50.4940  -55.1276 H         1 UNK         0.0798 
    116 H116       34.6736  -48.8476  -55.3123 H         1 UNK         0.0798 
    117 H117       33.1646  -50.1563  -53.7626 H         1 UNK         0.3079 
    118 H118       29.8692  -50.9521  -52.8725 H         1 UNK         0.0794 
    119 H119       30.7485  -52.5335  -51.1939 H         1 UNK         0.0786 
    120 H120       32.2752  -52.6652  -52.0691 H         1 UNK         0.0786 
    121 H121       30.7884  -53.2737  -52.7836 H         1 UNK         0.0786 
    122 H122       31.8854  -50.3587  -51.0888 H         1 UNK         0.3032 
    123 H123       31.1637  -47.3610  -50.6083 H         1 UNK         0.1094 
    124 H124       33.6666  -49.1241  -50.3570 H         1 UNK         0.0794 
    125 H125       33.1762  -47.8962  -49.1999 H         1 UNK         0.0794 
    126 H126       32.1638  -49.2999  -49.4459 H         1 UNK         0.0794 
    127 H127       32.5677  -45.7904  -51.3105 H         1 UNK         0.3016 
@<TRIPOS>BOND
     1    1    2 1    
     2    1   67 1    
     3    1   68 1    
     4    1   69 1    
     5    2    3 2    
     6    2    4 am   BACKBONE|DICT|INTERRES
     7    4    5 1    
     8    4   70 1    
     9    5    6 1    
    10    5   65 1    
    11    5   71 1    
    12    6    7 1    
    13    6   72 1    
    14    6   73 1    
    15    7    8 1    
    16    8    9 1    
    17    8   74 1    
    18    8   75 1    
    19    9   10 ar   
    20    9   14 ar   
    21   10   11 ar   
    22   10   76 1    
    23   11   12 ar   
    24   11   48 1    
    25   12   13 ar   
    26   12   77 1    
    27   13   14 ar   
    28   13   15 1    
    29   14   78 1    
    30   15   16 1    
    31   15   79 1    
    32   15   80 1    
    33   16   17 1    
    34   17   18 1    
    35   17   81 1    
    36   17   82 1    
    37   18   19 1    
    38   18   22 1    
    39   18   83 1    
    40   19   20 am   BACKBONE|DICT|INTERRES
    41   19   21 2    
    42   20   84 1    
    43   20   85 1    
    44   22   23 am   BACKBONE|DICT|INTERRES
    45   22   86 1    
    46   23   24 2    
    47   23   25 1    
    48   25   26 1    
    49   25   27 1    
    50   25   87 1    
    51   26   88 1    
    52   26   89 1    
    53   26   90 1    
    54   27   28 am   BACKBONE|DICT|INTERRES
    55   27   91 1    
    56   28   29 2    
    57   28   30 1    
    58   30   31 1    
    59   30   32 1    
    60   30   92 1    
    61   31   93 1    
    62   31   94 1    
    63   31   95 1    
    64   32   33 am   BACKBONE|DICT|INTERRES
    65   32   96 1    
    66   33   34 2    
    67   33   35 1    
    68   35   36 1    
    69   35   37 1    
    70   35   97 1    
    71   36   98 1    
    72   36   99 1    
    73   36  100 1    
    74   37   38 am   BACKBONE|DICT|INTERRES
    75   37  101 1    
    76   38   39 2    
    77   38   40 1    
    78   40   41 1    
    79   40   42 1    
    80   40  102 1    
    81   41  103 1    
    82   41  104 1    
    83   41  105 1    
    84   42   43 am   BACKBONE|DICT|INTERRES
    85   42  106 1    
    86   43   44 2    
    87   43   45 1    
    88   45   46 1    
    89   45   49 1    
    90   45  107 1    
    91   46   47 1    
    92   46  108 1    
    93   46  109 1    
    94   47   48 1    
    95   48  110 1    
    96   48  111 1    
    97   49   50 am   BACKBONE|DICT|INTERRES
    98   49  112 1    
    99   50   51 2    
   100   50   52 1    
   101   52   53 1    
   102   52   54 1    
   103   52  113 1    
   104   53  114 1    
   105   53  115 1    
   106   53  116 1    
   107   54   55 am   BACKBONE|DICT|INTERRES
   108   54  117 1    
   109   55   56 2    
   110   55   57 1    
   111   57   58 1    
   112   57   59 1    
   113   57  118 1    
   114   58  119 1    
   115   58  120 1    
   116   58  121 1    
   117   59   60 am   BACKBONE|DICT|INTERRES
   118   59  122 1    
   119   60   61 2    
   120   60   62 1    
   121   62   63 1    
   122   62   64 1    
   123   62  123 1    
   124   63  124 1    
   125   63  125 1    
   126   63  126 1    
   127   64   65 am   BACKBONE|DICT|INTERRES
   128   64  127 1    
   129   65   66 2    
@<TRIPOS>SUBSTRUCTURE
     1 UNK         1 GROUP             0       ****    0 ROOT    
