@<TRIPOS>MOLECULE
3R134
127   129    1
SMALL
USER_CHARGES


@<TRIPOS>ATOM
      1 CA         32.0225  -47.1864  -59.6450 C.3       0 UNK        -0.1968 
      2 C          32.8413  -46.8635  -58.4039 C.2       0 UNK         0.4852 
      3 O          33.9344  -46.3090  -58.5222 O.2       0 UNK        -0.5359 
      4 N          32.3163  -47.2195  -57.2243 N.am      1 UNK        -0.4300 
      5 CA         32.9617  -47.1374  -55.9097 C.3       1 UNK         0.0863 
      6 C6         33.4730  -45.7144  -55.5460 C.3       11 UNK        -0.0953 
      7 S7         33.3963  -45.3692  -53.7561 S.3       11 UNK        -0.2369 
      8 C8         32.8627  -43.6279  -53.7250 C.3       11 UNK         0.0226 
      9 C9         31.3469  -43.4877  -53.7560 C.ar      11 UNK        -0.0699 
     10 C10        30.6159  -43.5711  -52.5676 C.ar      11 UNK        -0.0804 
     11 C11        29.2248  -43.4201  -52.5710 C.ar      11 UNK        -0.0871 
     12 C12        28.5654  -43.1887  -53.7821 C.ar      11 UNK        -0.1008 
     13 C13        29.2864  -43.0796  -54.9758 C.ar      11 UNK        -0.0735 
     14 C14        30.6772  -43.2333  -54.9565 C.ar      11 UNK        -0.0945 
     15 C15        28.5633  -42.8080  -56.2880 C.3       11 UNK         0.0169 
     16 S16        27.7852  -41.1608  -56.3096 S.3       11 UNK        -0.2669 
     17 C17        27.6236  -40.8304  -58.1002 C.3       11 UNK        -0.0850 
     18 CA         26.2280  -41.2020  -58.6898 C.3       10 UNK         0.0855 
     19 C          26.0097  -40.6190  -60.1215 C.2       10 UNK         0.5543 
     20 N          25.2834  -41.2925  -61.0055 N.am      10 UNK        -0.7343 
     21 O          26.4753  -39.5243  -60.4293 O.2       10 UNK        -0.5027 
     22 N          25.9014  -42.6361  -58.5563 N.am      10 UNK        -0.4495 
     23 C          26.5911  -43.6481  -59.0969 C.2       10 UNK         0.4903 
     24 O          27.5984  -43.5127  -59.7947 O.2       10 UNK        -0.4860 
     25 CA         26.0986  -45.0620  -58.7815 C.3       9 UNK         0.0227 
     26 CB         25.4156  -45.7086  -59.9994 C.3       9 UNK        -0.1964 
     27 N          27.2714  -45.8297  -58.3820 N.am      9 UNK        -0.4231 
     28 C          27.2770  -46.8693  -57.5449 C.2       9 UNK         0.5014 
     29 O          26.2619  -47.4121  -57.1001 O.2       9 UNK        -0.5270 
     30 CA         28.6612  -47.3453  -57.0929 C.3       8 UNK         0.0284 
     31 CB         29.2412  -46.3802  -56.0432 C.3       8 UNK        -0.1977 
     32 N          28.5432  -48.6780  -56.5159 N.am      8 UNK        -0.4342 
     33 C          29.5064  -49.6044  -56.5010 C.2       8 UNK         0.5039 
     34 O          30.6420  -49.4210  -56.9475 O.2       8 UNK        -0.5547 
     35 CA         29.1402  -50.9365  -55.8396 C.3       7 UNK         0.0281 
     36 CB         30.2768  -51.9725  -55.8842 C.3       7 UNK        -0.1963 
     37 N          28.7670  -50.6712  -54.4531 N.am      7 UNK        -0.4444 
     38 C          27.6711  -51.1505  -53.8518 C.2       7 UNK         0.5104 
     39 O          26.8897  -51.9399  -54.3841 O.2       7 UNK        -0.5100 
     40 CA         27.3762  -50.6708  -52.4181 C.3       6 UNK         0.0396 
     41 CB         27.7694  -51.7545  -51.4017 C.3       6 UNK        -0.1801 
     42 N          28.0420  -49.4168  -52.0585 N.am      6 UNK        -0.4747 
     43 C          27.7873  -48.2120  -52.5929 C.2       6 UNK         0.5012 
     44 O          26.9194  -48.0128  -53.4422 O.2       6 UNK        -0.5003 
     45 CA         28.6480  -47.0302  -52.0932 C.3       5 UNK         0.0782 
     46 C46        27.8363  -46.2011  -51.0642 C.3       11 UNK        -0.0868 
     47 S47        28.7984  -44.8933  -50.2311 S.3       11 UNK        -0.2515 
     48 C48        28.4410  -43.4357  -51.2633 C.3       11 UNK         0.0199 
     49 N          29.9586  -47.4352  -51.5660 N.am      5 UNK        -0.4607 
     50 C          30.9119  -48.0945  -52.2355 C.2       4 UNK         0.5031 
     51 O          30.7682  -48.5134  -53.3875 O.2       4 UNK        -0.5119 
     52 CA         32.2445  -48.3283  -51.4930 C.3       4 UNK         0.0263 
     53 CB         32.0984  -48.4008  -49.9551 C.3       4 UNK        -0.1967 
     54 N          32.9520  -49.5042  -52.0096 N.am      4 UNK        -0.4237 
     55 C          32.5158  -50.7735  -52.0012 C.2       3 UNK         0.4908 
     56 O          31.4882  -51.1518  -51.4359 O.2       3 UNK        -0.5102 
     57 CA         33.3495  -51.7596  -52.8286 C.3       3 UNK         0.0241 
     58 CB         32.7170  -53.1625  -52.9289 C.3       3 UNK        -0.1971 
     59 N          33.5252  -51.1897  -54.1619 N.am      3 UNK        -0.4139 
     60 C          34.5739  -51.3755  -54.9690 C.2       2 UNK         0.5016 
     61 O          35.5377  -52.0904  -54.6922 O.2       2 UNK        -0.5319 
     62 CA         34.5432  -50.6344  -56.3171 C.3       2 UNK         0.0286 
     63 CB         34.0818  -51.5781  -57.4393 C.3       2 UNK        -0.1963 
     64 N          33.6802  -49.4478  -56.3108 N.am      2 UNK        -0.4790 
     65 C          33.9962  -48.2726  -55.7420 C.2       1 UNK         0.5024 
     66 O          35.0429  -48.0848  -55.1203 O.2       1 UNK        -0.4888 
     67 H67        32.6635  -47.6064  -60.4198 H         1 UNK         0.0892 
     68 H68        31.2362  -47.9114  -59.4349 H         1 UNK         0.0892 
     69 H69        31.5611  -46.2807  -60.0373 H         1 UNK         0.0892 
     70 H70        31.4685  -47.7844  -57.2222 H         1 UNK         0.3107 
     71 H71        32.1714  -47.3860  -55.2050 H         1 UNK         0.0773 
     72 H72        34.4913  -45.5506  -55.9029 H         1 UNK         0.0680 
     73 H73        32.8595  -44.9700  -56.0541 H         1 UNK         0.0680 
     74 H74        33.3202  -43.0836  -54.5526 H         1 UNK         0.0650 
     75 H75        33.2483  -43.1663  -52.8148 H         1 UNK         0.0650 
     76 H76        31.1341  -43.7429  -51.6340 H         1 UNK         0.1397 
     77 H77        27.4914  -43.0609  -53.7979 H         1 UNK         0.1363 
     78 H78        31.2404  -43.1507  -55.8756 H         1 UNK         0.1355 
     79 H79        27.7940  -43.5671  -56.4291 H         1 UNK         0.0707 
     80 H80        29.2532  -42.9016  -57.1280 H         1 UNK         0.0707 
     81 H81        27.8068  -39.7614  -58.2233 H         1 UNK         0.1034 
     82 H82        28.4276  -41.3207  -58.6501 H         1 UNK         0.1034 
     83 H83        25.4836  -40.6869  -58.0816 H         1 UNK         0.0482 
     84 H84        24.8837  -42.1845  -60.7636 H         1 UNK         0.3460 
     85 H85        25.1373  -40.9041  -61.9241 H         1 UNK         0.3460 
     86 H86        25.0817  -42.8432  -58.0034 H         1 UNK         0.2989 
     87 H87        25.3924  -45.0192  -57.9493 H         1 UNK         0.0559 
     88 H88        26.0897  -45.7697  -60.8548 H         1 UNK         0.0848 
     89 H89        24.5433  -45.1324  -60.3097 H         1 UNK         0.0848 
     90 H90        25.0725  -46.7180  -59.7717 H         1 UNK         0.0848 
     91 H91        28.1475  -45.4331  -58.6993 H         1 UNK         0.3144 
     92 H92        29.3153  -47.3895  -57.9654 H         1 UNK         0.0727 
     93 H93        29.6711  -45.5032  -56.5253 H         1 UNK         0.0790 
     94 H94        30.0271  -46.8391  -55.4485 H         1 UNK         0.0790 
     95 H95        28.4775  -46.0348  -55.3449 H         1 UNK         0.0790 
     96 H96        27.6222  -48.8913  -56.1496 H         1 UNK         0.3215 
     97 H97        28.2921  -51.3383  -56.3983 H         1 UNK         0.0863 
     98 H98        31.1610  -51.6158  -55.3611 H         1 UNK         0.0808 
     99 H99        30.5668  -52.1887  -56.9130 H         1 UNK         0.0808 
    100 H100       29.9730  -52.9139  -55.4267 H         1 UNK         0.0808 
    101 H101       29.3417  -49.9931  -53.9606 H         1 UNK         0.3118 
    102 H102       26.2990  -50.5080  -52.3445 H         1 UNK         0.0546 
    103 H103       28.8418  -51.9537  -51.4198 H         1 UNK         0.0828 
    104 H104       27.2608  -52.6952  -51.6170 H         1 UNK         0.0828 
    105 H105       27.4974  -51.4667  -50.3862 H         1 UNK         0.0828 
    106 H106       28.7912  -49.4827  -51.3837 H         1 UNK         0.3005 
    107 H107       28.8460  -46.3957  -52.9595 H         1 UNK         0.1257 
    108 H108       27.4476  -46.8509  -50.2773 H         1 UNK         0.0775 
    109 H109       26.9612  -45.7551  -51.5410 H         1 UNK         0.0775 
    110 H110       27.3668  -43.3733  -51.4439 H         1 UNK         0.0840 
    111 H111       28.7045  -42.5409  -50.6979 H         1 UNK         0.0840 
    112 H112       30.1601  -47.1149  -50.6299 H         1 UNK         0.2987 
    113 H113       32.8767  -47.4709  -51.7239 H         1 UNK         0.0785 
    114 H114       31.7854  -47.4432  -49.5377 H         1 UNK         0.0798 
    115 H115       33.0480  -48.6525  -49.4827 H         1 UNK         0.0798 
    116 H116       31.3685  -49.1508  -49.6478 H         1 UNK         0.0798 
    117 H117       33.7988  -49.3046  -52.5241 H         1 UNK         0.3079 
    118 H118       34.3213  -51.8479  -52.3381 H         1 UNK         0.0794 
    119 H119       32.6027  -53.6098  -51.9408 H         1 UNK         0.0786 
    120 H120       33.3371  -53.8370  -53.5196 H         1 UNK         0.0786 
    121 H121       31.7285  -53.1273  -53.3878 H         1 UNK         0.0786 
    122 H122       32.7974  -50.5583  -54.4693 H         1 UNK         0.3032 
    123 H123       35.5656  -50.3167  -56.5350 H         1 UNK         0.1094 
    124 H124       34.7173  -52.4634  -57.4914 H         1 UNK         0.0794 
    125 H125       33.0581  -51.9202  -57.2851 H         1 UNK         0.0794 
    126 H126       34.1291  -51.0895  -58.4127 H         1 UNK         0.0794 
    127 H127       32.7798  -49.5295  -56.7724 H         1 UNK         0.3016 
@<TRIPOS>BOND
     1    1    2 1    
     2    1   67 1    
     3    1   68 1    
     4    1   69 1    
     5    2    3 2    
     6    2    4 am   BACKBONE|DICT|INTERRES
     7    4    5 1    
     8    4   70 1    
     9    5    6 1    
    10    5   65 1    
    11    5   71 1    
    12    6    7 1    
    13    6   72 1    
    14    6   73 1    
    15    7    8 1    
    16    8    9 1    
    17    8   74 1    
    18    8   75 1    
    19    9   10 ar   
    20    9   14 ar   
    21   10   11 ar   
    22   10   76 1    
    23   11   12 ar   
    24   11   48 1    
    25   12   13 ar   
    26   12   77 1    
    27   13   14 ar   
    28   13   15 1    
    29   14   78 1    
    30   15   16 1    
    31   15   79 1    
    32   15   80 1    
    33   16   17 1    
    34   17   18 1    
    35   17   81 1    
    36   17   82 1    
    37   18   19 1    
    38   18   22 1    
    39   18   83 1    
    40   19   20 am   BACKBONE|DICT|INTERRES
    41   19   21 2    
    42   20   84 1    
    43   20   85 1    
    44   22   23 am   BACKBONE|DICT|INTERRES
    45   22   86 1    
    46   23   24 2    
    47   23   25 1    
    48   25   26 1    
    49   25   27 1    
    50   25   87 1    
    51   26   88 1    
    52   26   89 1    
    53   26   90 1    
    54   27   28 am   BACKBONE|DICT|INTERRES
    55   27   91 1    
    56   28   29 2    
    57   28   30 1    
    58   30   31 1    
    59   30   32 1    
    60   30   92 1    
    61   31   93 1    
    62   31   94 1    
    63   31   95 1    
    64   32   33 am   BACKBONE|DICT|INTERRES
    65   32   96 1    
    66   33   34 2    
    67   33   35 1    
    68   35   36 1    
    69   35   37 1    
    70   35   97 1    
    71   36   98 1    
    72   36   99 1    
    73   36  100 1    
    74   37   38 am   BACKBONE|DICT|INTERRES
    75   37  101 1    
    76   38   39 2    
    77   38   40 1    
    78   40   41 1    
    79   40   42 1    
    80   40  102 1    
    81   41  103 1    
    82   41  104 1    
    83   41  105 1    
    84   42   43 am   BACKBONE|DICT|INTERRES
    85   42  106 1    
    86   43   44 2    
    87   43   45 1    
    88   45   46 1    
    89   45   49 1    
    90   45  107 1    
    91   46   47 1    
    92   46  108 1    
    93   46  109 1    
    94   47   48 1    
    95   48  110 1    
    96   48  111 1    
    97   49   50 am   BACKBONE|DICT|INTERRES
    98   49  112 1    
    99   50   51 2    
   100   50   52 1    
   101   52   53 1    
   102   52   54 1    
   103   52  113 1    
   104   53  114 1    
   105   53  115 1    
   106   53  116 1    
   107   54   55 am   BACKBONE|DICT|INTERRES
   108   54  117 1    
   109   55   56 2    
   110   55   57 1    
   111   57   58 1    
   112   57   59 1    
   113   57  118 1    
   114   58  119 1    
   115   58  120 1    
   116   58  121 1    
   117   59   60 am   BACKBONE|DICT|INTERRES
   118   59  122 1    
   119   60   61 2    
   120   60   62 1    
   121   62   63 1    
   122   62   64 1    
   123   62  123 1    
   124   63  124 1    
   125   63  125 1    
   126   63  126 1    
   127   64   65 am   BACKBONE|DICT|INTERRES
   128   64  127 1    
   129   65   66 2    
@<TRIPOS>SUBSTRUCTURE
     1 UNK         1 GROUP             0       ****    0 ROOT    
