@<TRIPOS>MOLECULE
3R134
127   129    1
SMALL
USER_CHARGES


@<TRIPOS>ATOM
      1 CA         35.5566  -47.3349  -56.7310 C.3       0 UNK        -0.1968 
      2 C          34.9537  -47.0004  -55.3758 C.2       0 UNK         0.4852 
      3 O          34.1196  -47.7592  -54.8786 O.2       0 UNK        -0.5359 
      4 N          35.3778  -45.8825  -54.7677 N.am      1 UNK        -0.4300 
      5 CA         34.9026  -45.3371  -53.4852 C.3       1 UNK         0.0863 
      6 C6         35.2917  -43.8415  -53.3186 C.3       11 UNK        -0.0953 
      7 S7         34.7235  -42.7596  -54.6776 S.3       11 UNK        -0.2369 
      8 C8         33.4887  -41.7014  -53.8514 C.3       11 UNK         0.0226 
      9 C9         32.0909  -42.2932  -53.9488 C.ar      11 UNK        -0.0699 
     10 C10        31.7185  -43.3620  -53.1281 C.ar      11 UNK        -0.0804 
     11 C11        30.4596  -43.9531  -53.2645 C.ar      11 UNK        -0.0871 
     12 C12        29.5437  -43.4199  -54.1748 C.ar      11 UNK        -0.1008 
     13 C13        29.9018  -42.3503  -54.9982 C.ar      11 UNK        -0.0735 
     14 C14        31.1780  -41.7907  -54.8832 C.ar      11 UNK        -0.0945 
     15 C15        28.9140  -41.8380  -56.0339 C.3       11 UNK         0.0169 
     16 S16        28.6901  -43.0601  -57.3644 S.3       11 UNK        -0.2669 
     17 C17        27.2613  -42.3560  -58.2546 C.3       11 UNK        -0.0850 
     18 CA         25.8931  -42.6945  -57.6020 C.3       10 UNK         0.0855 
     19 C          24.7343  -42.1127  -58.4579 C.2       10 UNK         0.5543 
     20 N          24.2458  -40.9275  -58.1190 N.am      10 UNK        -0.7343 
     21 O          24.3146  -42.7010  -59.4523 O.2       10 UNK        -0.5027 
     22 N          25.7594  -44.1346  -57.3349 N.am      10 UNK        -0.4495 
     23 C          24.7379  -44.7309  -56.7062 C.2       10 UNK         0.4903 
     24 O          23.7642  -44.1240  -56.2575 O.2       10 UNK        -0.4860 
     25 CA         24.8424  -46.2551  -56.4875 C.3       9 UNK         0.0227 
     26 CB         23.4696  -46.9591  -56.5286 C.3       9 UNK        -0.1964 
     27 N          25.8098  -46.9289  -57.3632 N.am      9 UNK        -0.4231 
     28 C          25.7521  -47.0806  -58.6959 C.2       9 UNK         0.5014 
     29 O          24.8479  -46.6456  -59.4089 O.2       9 UNK        -0.5270 
     30 CA         26.9090  -47.8599  -59.3397 C.3       8 UNK         0.0284 
     31 CB         28.1481  -46.9621  -59.5034 C.3       8 UNK        -0.1977 
     32 N          27.2528  -49.0443  -58.5497 N.am      8 UNK        -0.4342 
     33 C          26.6094  -50.2185  -58.6242 C.2       8 UNK         0.5039 
     34 O          25.7194  -50.4616  -59.4402 O.2       8 UNK        -0.5547 
     35 CA         27.0203  -51.3092  -57.6177 C.3       7 UNK         0.0281 
     36 CB         28.1242  -52.2003  -58.2089 C.3       7 UNK        -0.1963 
     37 N          27.4674  -50.7536  -56.3373 N.am      7 UNK        -0.4444 
     38 C          26.6424  -50.2036  -55.4313 C.2       7 UNK         0.5104 
     39 O          25.4163  -50.2031  -55.5402 O.2       7 UNK        -0.5100 
     40 CA         27.2787  -49.5098  -54.2103 C.3       6 UNK         0.0396 
     41 CB         27.2255  -50.4314  -52.9829 C.3       6 UNK        -0.1801 
     42 N          28.6591  -49.0659  -54.4316 N.am      6 UNK        -0.4747 
     43 C          29.0245  -48.1491  -55.3421 C.2       6 UNK         0.5012 
     44 O          28.2150  -47.5529  -56.0535 O.2       6 UNK        -0.5003 
     45 CA         30.5301  -47.8853  -55.5575 C.3       5 UNK         0.0782 
     46 C46        30.9650  -46.5612  -54.8902 C.3       11 UNK        -0.0868 
     47 S47        31.1219  -46.6415  -53.0617 S.3       11 UNK        -0.2515 
     48 C48        30.1157  -45.2240  -52.5007 C.3       11 UNK         0.0199 
     49 N          31.4100  -48.9905  -55.1768 N.am      5 UNK        -0.4607 
     50 C          31.3350  -50.2622  -55.5855 C.2       4 UNK         0.5031 
     51 O          30.5253  -50.6685  -56.4194 O.2       4 UNK        -0.5119 
     52 CA         32.2765  -51.2583  -54.8849 C.3       4 UNK         0.0263 
     53 CB         33.6016  -51.3763  -55.6539 C.3       4 UNK        -0.1967 
     54 N          32.5570  -50.9189  -53.4825 N.am      4 UNK        -0.4237 
     55 C          31.6451  -50.7379  -52.5160 C.2       3 UNK         0.4908 
     56 O          30.4338  -50.8588  -52.6979 O.2       3 UNK        -0.5102 
     57 CA         32.1392  -50.3183  -51.1188 C.3       3 UNK         0.0241 
     58 CB         32.3657  -51.5509  -50.2214 C.3       3 UNK        -0.1971 
     59 N          33.3022  -49.4155  -51.1048 N.am      3 UNK        -0.4139 
     60 C          34.5681  -49.6687  -51.4656 C.2       2 UNK         0.5016 
     61 O          34.9476  -50.7384  -51.9456 O.2       2 UNK        -0.5319 
     62 CA         35.5424  -48.4930  -51.3401 C.3       2 UNK         0.0286 
     63 CB         37.0159  -48.9018  -51.5372 C.3       2 UNK        -0.1963 
     64 N          35.1667  -47.4998  -52.3387 N.am      2 UNK        -0.4790 
     65 C          35.3555  -46.1809  -52.2636 C.2       1 UNK         0.5024 
     66 O          35.8754  -45.6364  -51.2875 O.2       1 UNK        -0.4888 
     67 H67        36.0691  -48.2953  -56.6848 H         1 UNK         0.0892 
     68 H68        36.2728  -46.5811  -57.0572 H         1 UNK         0.0892 
     69 H69        34.7698  -47.4042  -57.4815 H         1 UNK         0.0892 
     70 H70        36.0760  -45.3168  -55.2286 H         1 UNK         0.3107 
     71 H71        33.8135  -45.3927  -53.5021 H         1 UNK         0.0773 
     72 H72        36.3771  -43.7419  -53.2570 H         1 UNK         0.0680 
     73 H73        34.9062  -43.4534  -52.3745 H         1 UNK         0.0680 
     74 H74        33.7572  -41.5332  -52.8078 H         1 UNK         0.0650 
     75 H75        33.5109  -40.7190  -54.3254 H         1 UNK         0.0650 
     76 H76        32.4258  -43.7702  -52.4204 H         1 UNK         0.1397 
     77 H77        28.5695  -43.8757  -54.2916 H         1 UNK         0.1363 
     78 H78        31.4662  -40.9744  -55.5315 H         1 UNK         0.1355 
     79 H79        29.2501  -40.8924  -56.4623 H         1 UNK         0.0707 
     80 H80        27.9582  -41.6406  -55.5471 H         1 UNK         0.0707 
     81 H81        27.2941  -42.7352  -59.2781 H         1 UNK         0.1034 
     82 H82        27.3921  -41.2748  -58.3328 H         1 UNK         0.1034 
     83 H83        25.8601  -42.2057  -56.6266 H         1 UNK         0.0482 
     84 H84        23.5060  -40.5259  -58.6739 H         1 UNK         0.3460 
     85 H85        24.5897  -40.4318  -57.3112 H         1 UNK         0.3460 
     86 H86        26.5217  -44.7105  -57.6575 H         1 UNK         0.2989 
     87 H87        25.2369  -46.3785  -55.4779 H         1 UNK         0.0559 
     88 H88        22.9713  -46.8205  -57.4884 H         1 UNK         0.0848 
     89 H89        22.8039  -46.5672  -55.7588 H         1 UNK         0.0848 
     90 H90        23.5693  -48.0305  -56.3527 H         1 UNK         0.0848 
     91 H91        26.6462  -47.2676  -56.8887 H         1 UNK         0.3144 
     92 H92        26.5902  -48.1760  -60.3356 H         1 UNK         0.0727 
     93 H93        28.9593  -47.4952  -59.9996 H         1 UNK         0.0790 
     94 H94        28.5238  -46.5971  -58.5470 H         1 UNK         0.0790 
     95 H95        27.9155  -46.0883  -60.1138 H         1 UNK         0.0790 
     96 H96        27.9414  -48.9205  -57.8203 H         1 UNK         0.3215 
     97 H97        26.1443  -51.9348  -57.4316 H         1 UNK         0.0863 
     98 H98        28.4094  -52.9929  -57.5169 H         1 UNK         0.0808 
     99 H99        29.0205  -51.6282  -58.4515 H         1 UNK         0.0808 
    100 H100       27.7858  -52.6788  -59.1289 H         1 UNK         0.0808 
    101 H101       28.4697  -50.7222  -56.1760 H         1 UNK         0.3118 
    102 H102       26.6810  -48.6219  -53.9934 H         1 UNK         0.0546 
    103 H103       26.1981  -50.7174  -52.7535 H         1 UNK         0.0828 
    104 H104       27.6309  -49.9405  -52.0981 H         1 UNK         0.0828 
    105 H105       27.7906  -51.3501  -53.1450 H         1 UNK         0.0828 
    106 H106       29.3799  -49.5381  -53.8938 H         1 UNK         0.3005 
    107 H107       30.6531  -47.7627  -56.6356 H         1 UNK         0.1257 
    108 H108       30.2809  -45.7684  -55.1900 H         1 UNK         0.0775 
    109 H109       31.9342  -46.2554  -55.2853 H         1 UNK         0.0775 
    110 H110       29.0600  -45.4747  -52.6165 H         1 UNK         0.0840 
    111 H111       30.2804  -45.0661  -51.4340 H         1 UNK         0.0840 
    112 H112       32.1573  -48.7402  -54.5409 H         1 UNK         0.2987 
    113 H113       31.7833  -52.2323  -54.8923 H         1 UNK         0.0785 
    114 H114       33.4261  -51.6486  -56.6956 H         1 UNK         0.0798 
    115 H115       34.2442  -52.1437  -55.2222 H         1 UNK         0.0798 
    116 H116       34.1540  -50.4356  -55.6506 H         1 UNK         0.0798 
    117 H117       33.5333  -50.8410  -53.2090 H         1 UNK         0.3079 
    118 H118       31.3260  -49.7415  -50.6747 H         1 UNK         0.0794 
    119 H119       33.1535  -52.1990  -50.6065 H         1 UNK         0.0786 
    120 H120       31.4583  -52.1527  -50.1532 H         1 UNK         0.0786 
    121 H121       32.6370  -51.2586  -49.2070 H         1 UNK         0.0786 
    122 H122       33.0966  -48.4739  -50.7991 H         1 UNK         0.3032 
    123 H123       35.4281  -48.0744  -50.3374 H         1 UNK         0.1094 
    124 H124       37.6860  -48.0554  -51.3865 H         1 UNK         0.0794 
    125 H125       37.3049  -49.6749  -50.8241 H         1 UNK         0.0794 
    126 H126       37.1946  -49.2953  -52.5387 H         1 UNK         0.0794 
    127 H127       34.7212  -47.8512  -53.1871 H         1 UNK         0.3016 
@<TRIPOS>BOND
     1    1    2 1    
     2    1   67 1    
     3    1   68 1    
     4    1   69 1    
     5    2    3 2    
     6    2    4 am   BACKBONE|DICT|INTERRES
     7    4    5 1    
     8    4   70 1    
     9    5    6 1    
    10    5   65 1    
    11    5   71 1    
    12    6    7 1    
    13    6   72 1    
    14    6   73 1    
    15    7    8 1    
    16    8    9 1    
    17    8   74 1    
    18    8   75 1    
    19    9   10 ar   
    20    9   14 ar   
    21   10   11 ar   
    22   10   76 1    
    23   11   12 ar   
    24   11   48 1    
    25   12   13 ar   
    26   12   77 1    
    27   13   14 ar   
    28   13   15 1    
    29   14   78 1    
    30   15   16 1    
    31   15   79 1    
    32   15   80 1    
    33   16   17 1    
    34   17   18 1    
    35   17   81 1    
    36   17   82 1    
    37   18   19 1    
    38   18   22 1    
    39   18   83 1    
    40   19   20 am   BACKBONE|DICT|INTERRES
    41   19   21 2    
    42   20   84 1    
    43   20   85 1    
    44   22   23 am   BACKBONE|DICT|INTERRES
    45   22   86 1    
    46   23   24 2    
    47   23   25 1    
    48   25   26 1    
    49   25   27 1    
    50   25   87 1    
    51   26   88 1    
    52   26   89 1    
    53   26   90 1    
    54   27   28 am   BACKBONE|DICT|INTERRES
    55   27   91 1    
    56   28   29 2    
    57   28   30 1    
    58   30   31 1    
    59   30   32 1    
    60   30   92 1    
    61   31   93 1    
    62   31   94 1    
    63   31   95 1    
    64   32   33 am   BACKBONE|DICT|INTERRES
    65   32   96 1    
    66   33   34 2    
    67   33   35 1    
    68   35   36 1    
    69   35   37 1    
    70   35   97 1    
    71   36   98 1    
    72   36   99 1    
    73   36  100 1    
    74   37   38 am   BACKBONE|DICT|INTERRES
    75   37  101 1    
    76   38   39 2    
    77   38   40 1    
    78   40   41 1    
    79   40   42 1    
    80   40  102 1    
    81   41  103 1    
    82   41  104 1    
    83   41  105 1    
    84   42   43 am   BACKBONE|DICT|INTERRES
    85   42  106 1    
    86   43   44 2    
    87   43   45 1    
    88   45   46 1    
    89   45   49 1    
    90   45  107 1    
    91   46   47 1    
    92   46  108 1    
    93   46  109 1    
    94   47   48 1    
    95   48  110 1    
    96   48  111 1    
    97   49   50 am   BACKBONE|DICT|INTERRES
    98   49  112 1    
    99   50   51 2    
   100   50   52 1    
   101   52   53 1    
   102   52   54 1    
   103   52  113 1    
   104   53  114 1    
   105   53  115 1    
   106   53  116 1    
   107   54   55 am   BACKBONE|DICT|INTERRES
   108   54  117 1    
   109   55   56 2    
   110   55   57 1    
   111   57   58 1    
   112   57   59 1    
   113   57  118 1    
   114   58  119 1    
   115   58  120 1    
   116   58  121 1    
   117   59   60 am   BACKBONE|DICT|INTERRES
   118   59  122 1    
   119   60   61 2    
   120   60   62 1    
   121   62   63 1    
   122   62   64 1    
   123   62  123 1    
   124   63  124 1    
   125   63  125 1    
   126   63  126 1    
   127   64   65 am   BACKBONE|DICT|INTERRES
   128   64  127 1    
   129   65   66 2    
@<TRIPOS>SUBSTRUCTURE
     1 UNK         1 GROUP             0       ****    0 ROOT    
