@<TRIPOS>MOLECULE
3R134
127   129    1
SMALL
USER_CHARGES


@<TRIPOS>ATOM
      1 CA         34.4912  -44.4371  -57.8598 C.3       0 UNK        -0.1968 
      2 C          34.8447  -44.7102  -56.4041 C.2       0 UNK         0.4852 
      3 O          36.0153  -44.9467  -56.0979 O.2       0 UNK        -0.5359 
      4 N          33.8368  -44.6713  -55.5208 N.am      1 UNK        -0.4300 
      5 CA         33.9055  -44.9401  -54.0760 C.3       1 UNK         0.0863 
      6 C6         34.8503  -43.9786  -53.2837 C.3       11 UNK        -0.0953 
      7 S7         34.6983  -42.2055  -53.7120 S.3       11 UNK        -0.2369 
      8 C8         33.3809  -41.6292  -52.5907 C.3       11 UNK         0.0226 
      9 C9         32.0626  -42.3235  -52.8904 C.ar      11 UNK        -0.0699 
     10 C10        31.4951  -43.1950  -51.9567 C.ar      11 UNK        -0.0804 
     11 C11        30.3537  -43.9333  -52.2828 C.ar      11 UNK        -0.0871 
     12 C12        29.7631  -43.7744  -53.5399 C.ar      11 UNK        -0.1008 
     13 C13        30.3121  -42.8880  -54.4707 C.ar      11 UNK        -0.0735 
     14 C14        31.4514  -42.1537  -54.1362 C.ar      11 UNK        -0.0945 
     15 C15        29.7093  -42.7648  -55.8575 C.3       11 UNK         0.0169 
     16 S16        30.4728  -43.9774  -56.9795 S.3       11 UNK        -0.2669 
     17 C17        29.5999  -43.6672  -58.5568 C.3       11 UNK        -0.0850 
     18 CA         28.0475  -43.6539  -58.4709 C.3       10 UNK         0.0855 
     19 C          27.4114  -43.5065  -59.8853 C.2       10 UNK         0.5543 
     20 N          26.6001  -44.4450  -60.3606 N.am      10 UNK        -0.7343 
     21 O          27.6591  -42.5133  -60.5643 O.2       10 UNK        -0.5027 
     22 N          27.5366  -44.7879  -57.6886 N.am      10 UNK        -0.4495 
     23 C          26.3360  -44.8450  -57.1005 C.2       10 UNK         0.4903 
     24 O          25.5357  -43.9087  -57.0826 O.2       10 UNK        -0.4860 
     25 CA         25.9791  -46.1823  -56.4208 C.3       9 UNK         0.0227 
     26 CB         24.4579  -46.3874  -56.2671 C.3       9 UNK        -0.1964 
     27 N          26.5937  -47.3453  -57.0749 N.am      9 UNK        -0.4231 
     28 C          26.4367  -47.7437  -58.3491 C.2       9 UNK         0.5014 
     29 O          25.7504  -47.1456  -59.1786 O.2       9 UNK        -0.5270 
     30 CA         27.1900  -49.0108  -58.7782 C.3       8 UNK         0.0284 
     31 CB         28.5898  -48.6493  -59.3015 C.3       8 UNK        -0.1977 
     32 N          27.3106  -49.9465  -57.6584 N.am      8 UNK        -0.4342 
     33 C          26.6231  -51.0886  -57.5410 C.2       8 UNK         0.5039 
     34 O          25.8954  -51.5538  -58.4195 O.2       8 UNK        -0.5547 
     35 CA         26.7533  -51.8281  -56.2003 C.3       7 UNK         0.0281 
     36 CB         28.1182  -52.5259  -56.0912 C.3       7 UNK        -0.1963 
     37 N          26.5608  -50.9464  -55.0467 N.am      7 UNK        -0.4444 
     38 C          25.4219  -50.3219  -54.7200 C.2       7 UNK         0.5104 
     39 O          24.3774  -50.4296  -55.3623 O.2       7 UNK        -0.5100 
     40 CA         25.4323  -49.4184  -53.4688 C.3       6 UNK         0.0396 
     41 CB         25.0731  -50.2234  -52.2049 C.3       6 UNK        -0.1801 
     42 N          26.6595  -48.6283  -53.2766 N.am      6 UNK        -0.4747 
     43 C          27.9013  -49.0599  -53.0100 C.2       6 UNK         0.5012 
     44 O          28.1983  -50.2449  -52.8448 O.2       6 UNK        -0.5003 
     45 CA         29.0095  -47.9905  -52.9751 C.3       5 UNK         0.0782 
     46 C46        29.4988  -47.7636  -51.5236 C.3       11 UNK        -0.0868 
     47 S47        30.7871  -46.4804  -51.4016 S.3       11 UNK        -0.2515 
     48 C48        29.8052  -44.9531  -51.3012 C.3       11 UNK         0.0199 
     49 N          30.0973  -48.3344  -53.8986 N.am      5 UNK        -0.4607 
     50 C          29.9566  -48.4858  -55.2247 C.2       4 UNK         0.5031 
     51 O          28.8753  -48.3885  -55.8096 O.2       4 UNK        -0.5119 
     52 CA         31.2161  -48.7740  -56.0590 C.3       4 UNK         0.0263 
     53 CB         31.7102  -47.4792  -56.7219 C.3       4 UNK        -0.1967 
     54 N          32.3067  -49.3700  -55.2849 N.am      4 UNK        -0.4237 
     55 C          32.3183  -50.6424  -54.8585 C.2       3 UNK         0.4908 
     56 O          31.4319  -51.4545  -55.1223 O.2       3 UNK        -0.5102 
     57 CA         33.5098  -51.1040  -53.9972 C.3       3 UNK         0.0241 
     58 CB         34.4946  -51.9295  -54.8413 C.3       3 UNK        -0.1971 
     59 N          34.2383  -50.0144  -53.3432 N.am      3 UNK        -0.4139 
     60 C          33.7327  -49.1992  -52.4077 C.2       2 UNK         0.5016 
     61 O          32.5872  -49.2963  -51.9699 O.2       2 UNK        -0.5319 
     62 CA         34.6438  -48.0664  -51.8955 C.3       2 UNK         0.0286 
     63 CB         36.1513  -48.3447  -52.0934 C.3       2 UNK        -0.1963 
     64 N          34.2971  -46.7559  -52.4637 N.am      2 UNK        -0.4790 
     65 C          34.1936  -46.4297  -53.7624 C.2       1 UNK         0.5024 
     66 O          34.2978  -47.2544  -54.6750 O.2       1 UNK        -0.4888 
     67 H67        35.0410  -43.5689  -58.2231 H         1 UNK         0.0892 
     68 H68        34.7592  -45.2944  -58.4770 H         1 UNK         0.0892 
     69 H69        33.4263  -44.2443  -57.9935 H         1 UNK         0.0892 
     70 H70        32.9067  -44.4669  -55.8610 H         1 UNK         0.3107 
     71 H71        32.8879  -44.7824  -53.7226 H         1 UNK         0.0773 
     72 H72        34.6873  -44.0765  -52.2093 H         1 UNK         0.0680 
     73 H73        35.8920  -44.2575  -53.4525 H         1 UNK         0.0680 
     74 H74        33.2556  -40.5526  -52.7126 H         1 UNK         0.0650 
     75 H75        33.6894  -41.7922  -51.5569 H         1 UNK         0.0650 
     76 H76        31.9710  -43.3431  -50.9969 H         1 UNK         0.1397 
     77 H77        28.8958  -44.3618  -53.8083 H         1 UNK         0.1363 
     78 H78        31.8978  -41.4918  -54.8659 H         1 UNK         0.1355 
     79 H79        29.8550  -41.7573  -56.2504 H         1 UNK         0.0707 
     80 H80        28.6329  -42.9280  -55.7982 H         1 UNK         0.0707 
     81 H81        29.9601  -42.7189  -58.9603 H         1 UNK         0.1034 
     82 H82        29.9289  -44.4332  -59.2617 H         1 UNK         0.1034 
     83 H83        27.7605  -42.7441  -57.9413 H         1 UNK         0.0482 
     84 H84        26.3715  -45.2682  -59.8153 H         1 UNK         0.3460 
     85 H85        26.1979  -44.3268  -61.2766 H         1 UNK         0.3460 
     86 H86        28.1357  -45.5978  -57.6424 H         1 UNK         0.2989 
     87 H87        26.4103  -46.1357  -55.4203 H         1 UNK         0.0559 
     88 H88        23.9497  -46.3686  -57.2317 H         1 UNK         0.0848 
     89 H89        24.2305  -47.3401  -55.7895 H         1 UNK         0.0848 
     90 H90        24.0159  -45.6028  -55.6520 H         1 UNK         0.0848 
     91 H91        27.2843  -47.8395  -56.5141 H         1 UNK         0.3144 
     92 H92        26.6293  -49.4646  -59.5979 H         1 UNK         0.0727 
     93 H93        29.1254  -49.5360  -59.6405 H         1 UNK         0.0790 
     94 H94        29.1964  -48.1642  -58.5380 H         1 UNK         0.0790 
     95 H95        28.5245  -47.9657  -60.1491 H         1 UNK         0.0790 
     96 H96        27.8845  -49.6414  -56.8777 H         1 UNK         0.3215 
     97 H97        25.9752  -52.5937  -56.1662 H         1 UNK         0.0863 
     98 H98        28.1902  -53.1182  -55.1789 H         1 UNK         0.0808 
     99 H99        28.9397  -51.8088  -56.0881 H         1 UNK         0.0808 
    100 H100       28.2794  -53.2032  -56.9309 H         1 UNK         0.0808 
    101 H101       27.3487  -50.8195  -54.4163 H         1 UNK         0.3118 
    102 H102       24.6394  -48.6835  -53.6165 H         1 UNK         0.0546 
    103 H103       24.1042  -50.7113  -52.3190 H         1 UNK         0.0828 
    104 H104       25.0090  -49.5788  -51.3285 H         1 UNK         0.0828 
    105 H105       25.8030  -51.0052  -51.9942 H         1 UNK         0.0828 
    106 H106       26.5312  -47.6353  -53.4110 H         1 UNK         0.3005 
    107 H107       28.5883  -47.0502  -53.3357 H         1 UNK         0.1257 
    108 H108       29.9169  -48.6874  -51.1183 H         1 UNK         0.0775 
    109 H109       28.6690  -47.4947  -50.8669 H         1 UNK         0.0775 
    110 H110       28.7533  -45.1521  -51.5102 H         1 UNK         0.0840 
    111 H111       29.8482  -44.5608  -50.2840 H         1 UNK         0.0840 
    112 H112       31.0043  -48.4799  -53.4738 H         1 UNK         0.2987 
    113 H113       30.9346  -49.4743  -56.8484 H         1 UNK         0.0785 
    114 H114       30.9547  -47.0651  -57.3898 H         1 UNK         0.0798 
    115 H115       32.6098  -47.6479  -57.3139 H         1 UNK         0.0798 
    116 H116       31.9337  -46.7132  -55.9800 H         1 UNK         0.0798 
    117 H117       33.0795  -48.7575  -55.0366 H         1 UNK         0.3079 
    118 H118       33.1068  -51.7484  -53.2130 H         1 UNK         0.0794 
    119 H119       33.9903  -52.7715  -55.3178 H         1 UNK         0.0786 
    120 H120       35.2966  -52.3408  -54.2280 H         1 UNK         0.0786 
    121 H121       34.9476  -51.3310  -55.6327 H         1 UNK         0.0786 
    122 H122       35.1760  -49.8334  -53.6710 H         1 UNK         0.3032 
    123 H123       34.4600  -48.0011  -50.8217 H         1 UNK         0.1094 
    124 H124       36.7539  -47.5935  -51.5827 H         1 UNK         0.0794 
    125 H125       36.4328  -49.3132  -51.6772 H         1 UNK         0.0794 
    126 H126       36.4431  -48.3345  -53.1442 H         1 UNK         0.0794 
    127 H127       34.1186  -46.0324  -51.7814 H         1 UNK         0.3016 
@<TRIPOS>BOND
     1    1    2 1    
     2    1   67 1    
     3    1   68 1    
     4    1   69 1    
     5    2    3 2    
     6    2    4 am   BACKBONE|DICT|INTERRES
     7    4    5 1    
     8    4   70 1    
     9    5    6 1    
    10    5   65 1    
    11    5   71 1    
    12    6    7 1    
    13    6   72 1    
    14    6   73 1    
    15    7    8 1    
    16    8    9 1    
    17    8   74 1    
    18    8   75 1    
    19    9   10 ar   
    20    9   14 ar   
    21   10   11 ar   
    22   10   76 1    
    23   11   12 ar   
    24   11   48 1    
    25   12   13 ar   
    26   12   77 1    
    27   13   14 ar   
    28   13   15 1    
    29   14   78 1    
    30   15   16 1    
    31   15   79 1    
    32   15   80 1    
    33   16   17 1    
    34   17   18 1    
    35   17   81 1    
    36   17   82 1    
    37   18   19 1    
    38   18   22 1    
    39   18   83 1    
    40   19   20 am   BACKBONE|DICT|INTERRES
    41   19   21 2    
    42   20   84 1    
    43   20   85 1    
    44   22   23 am   BACKBONE|DICT|INTERRES
    45   22   86 1    
    46   23   24 2    
    47   23   25 1    
    48   25   26 1    
    49   25   27 1    
    50   25   87 1    
    51   26   88 1    
    52   26   89 1    
    53   26   90 1    
    54   27   28 am   BACKBONE|DICT|INTERRES
    55   27   91 1    
    56   28   29 2    
    57   28   30 1    
    58   30   31 1    
    59   30   32 1    
    60   30   92 1    
    61   31   93 1    
    62   31   94 1    
    63   31   95 1    
    64   32   33 am   BACKBONE|DICT|INTERRES
    65   32   96 1    
    66   33   34 2    
    67   33   35 1    
    68   35   36 1    
    69   35   37 1    
    70   35   97 1    
    71   36   98 1    
    72   36   99 1    
    73   36  100 1    
    74   37   38 am   BACKBONE|DICT|INTERRES
    75   37  101 1    
    76   38   39 2    
    77   38   40 1    
    78   40   41 1    
    79   40   42 1    
    80   40  102 1    
    81   41  103 1    
    82   41  104 1    
    83   41  105 1    
    84   42   43 am   BACKBONE|DICT|INTERRES
    85   42  106 1    
    86   43   44 2    
    87   43   45 1    
    88   45   46 1    
    89   45   49 1    
    90   45  107 1    
    91   46   47 1    
    92   46  108 1    
    93   46  109 1    
    94   47   48 1    
    95   48  110 1    
    96   48  111 1    
    97   49   50 am   BACKBONE|DICT|INTERRES
    98   49  112 1    
    99   50   51 2    
   100   50   52 1    
   101   52   53 1    
   102   52   54 1    
   103   52  113 1    
   104   53  114 1    
   105   53  115 1    
   106   53  116 1    
   107   54   55 am   BACKBONE|DICT|INTERRES
   108   54  117 1    
   109   55   56 2    
   110   55   57 1    
   111   57   58 1    
   112   57   59 1    
   113   57  118 1    
   114   58  119 1    
   115   58  120 1    
   116   58  121 1    
   117   59   60 am   BACKBONE|DICT|INTERRES
   118   59  122 1    
   119   60   61 2    
   120   60   62 1    
   121   62   63 1    
   122   62   64 1    
   123   62  123 1    
   124   63  124 1    
   125   63  125 1    
   126   63  126 1    
   127   64   65 am   BACKBONE|DICT|INTERRES
   128   64  127 1    
   129   65   66 2    
@<TRIPOS>SUBSTRUCTURE
     1 UNK         1 GROUP             0       ****    0 ROOT    
