@<TRIPOS>MOLECULE
3R134
127   129    1
SMALL
USER_CHARGES


@<TRIPOS>ATOM
      1 CA         33.7407  -43.0153  -57.4328 C.3       0 UNK        -0.1968 
      2 C          33.8098  -44.0255  -56.2985 C.2       0 UNK         0.4852 
      3 O          33.5053  -45.1993  -56.5064 O.2       0 UNK        -0.5359 
      4 N          34.2338  -43.5872  -55.1047 N.am      1 UNK        -0.4300 
      5 CA         34.2518  -44.3613  -53.8505 C.3       1 UNK         0.0863 
      6 C6         34.3443  -43.4507  -52.5957 C.3       11 UNK        -0.0953 
      7 S7         33.1761  -42.0421  -52.6140 S.3       11 UNK        -0.2369 
      8 C8         31.8371  -42.5979  -51.4970 C.3       11 UNK         0.0226 
      9 C9         30.8785  -43.6548  -52.0553 C.ar      11 UNK        -0.0699 
     10 C10        29.9933  -44.2839  -51.1715 C.ar      11 UNK        -0.0804 
     11 C11        29.0938  -45.2556  -51.6234 C.ar      11 UNK        -0.0871 
     12 C12        29.0960  -45.6114  -52.9745 C.ar      11 UNK        -0.1008 
     13 C13        29.9837  -45.0117  -53.8680 C.ar      11 UNK        -0.0735 
     14 C14        30.8431  -44.0109  -53.4102 C.ar      11 UNK        -0.0945 
     15 C15        30.0686  -45.4923  -55.3092 C.3       11 UNK         0.0169 
     16 S16        29.5457  -44.2226  -56.5003 S.3       11 UNK        -0.2669 
     17 C17        30.0290  -45.0339  -58.0644 C.3       11 UNK        -0.0850 
     18 CA         29.0473  -44.7364  -59.2280 C.3       10 UNK         0.0855 
     19 C          29.6082  -45.2647  -60.5800 C.2       10 UNK         0.5543 
     20 N          28.9424  -46.1874  -61.2642 N.am      10 UNK        -0.7343 
     21 O          30.6641  -44.8185  -61.0217 O.2       10 UNK        -0.5027 
     22 N          27.6861  -45.2018  -58.9185 N.am      10 UNK        -0.4495 
     23 C          26.5593  -44.6640  -59.4082 C.2       10 UNK         0.4903 
     24 O          26.5422  -43.7191  -60.1978 O.2       10 UNK        -0.4860 
     25 CA         25.2151  -45.2704  -58.9500 C.3       9 UNK         0.0227 
     26 CB         24.6090  -46.1367  -60.0665 C.3       9 UNK        -0.1964 
     27 N          25.3296  -46.0747  -57.7315 N.am      9 UNK        -0.4231 
     28 C          25.6093  -45.5894  -56.5144 C.2       9 UNK         0.5014 
     29 O          25.5890  -44.3878  -56.2446 O.2       9 UNK        -0.5270 
     30 CA         26.0106  -46.5970  -55.4159 C.3       8 UNK         0.0284 
     31 CB         25.0028  -46.5724  -54.2541 C.3       8 UNK        -0.1977 
     32 N          26.2181  -47.9881  -55.8527 N.am      8 UNK        -0.4342 
     33 C          27.1307  -48.4097  -56.7426 C.2       8 UNK         0.5039 
     34 O          27.8819  -47.6454  -57.3497 O.2       8 UNK        -0.5547 
     35 CA         27.1860  -49.9230  -57.0154 C.3       7 UNK         0.0281 
     36 CB         28.4343  -50.3282  -57.8217 C.3       7 UNK        -0.1963 
     37 N          27.1839  -50.6532  -55.7500 N.am      7 UNK        -0.4444 
     38 C          26.2568  -51.5338  -55.3453 C.2       7 UNK         0.5104 
     39 O          25.2864  -51.8651  -56.0263 O.2       7 UNK        -0.5100 
     40 CA         26.4228  -52.1393  -53.9336 C.3       6 UNK         0.0396 
     41 CB         27.0576  -53.5361  -54.0224 C.3       6 UNK        -0.1801 
     42 N          27.2308  -51.3019  -53.0426 N.am      6 UNK        -0.4747 
     43 C          26.8717  -50.0844  -52.6101 C.2       6 UNK         0.5012 
     44 O          25.7322  -49.6372  -52.7372 O.2       6 UNK        -0.5003 
     45 CA         27.9741  -49.1778  -52.0192 C.3       5 UNK         0.0782 
     46 C46        27.6483  -48.7213  -50.5776 C.3       11 UNK        -0.0868 
     47 S47        28.8201  -47.4596  -49.9655 S.3       11 UNK        -0.2515 
     48 C48        28.1250  -45.9197  -50.6532 C.3       11 UNK         0.0199 
     49 N          29.3365  -49.7177  -52.1519 N.am      5 UNK        -0.4607 
     50 C          29.9928  -49.8533  -53.3109 C.2       4 UNK         0.5031 
     51 O          29.4917  -49.5944  -54.4068 O.2       4 UNK        -0.5119 
     52 CA         31.3992  -50.4672  -53.2305 C.3       4 UNK         0.0263 
     53 CB         31.3027  -51.9942  -53.0699 C.3       4 UNK        -0.1967 
     54 N          32.1922  -50.1701  -54.4246 N.am      4 UNK        -0.4237 
     55 C          32.7245  -48.9745  -54.7029 C.2       3 UNK         0.4908 
     56 O          32.6417  -47.9936  -53.9598 O.2       3 UNK        -0.5102 
     57 CA         33.4575  -48.8595  -56.0489 C.3       3 UNK         0.0241 
     58 CB         32.4879  -48.4124  -57.1558 C.3       3 UNK        -0.1971 
     59 N          34.5520  -47.8956  -55.9444 N.am      3 UNK        -0.4139 
     60 C          35.7627  -48.1773  -55.4366 C.2       2 UNK         0.5016 
     61 O          36.1352  -49.3162  -55.1503 O.2       2 UNK        -0.5319 
     62 CA         36.7199  -46.9939  -55.1858 C.3       2 UNK         0.0286 
     63 CB         37.6564  -46.7895  -56.3873 C.3       2 UNK        -0.1963 
     64 N          35.9959  -45.7499  -54.9211 N.am      2 UNK        -0.4790 
     65 C          35.2888  -45.5083  -53.8080 C.2       1 UNK         0.5024 
     66 O          35.4072  -46.1790  -52.7815 O.2       1 UNK        -0.4888 
     67 H67        34.1685  -42.0538  -57.1494 H         1 UNK         0.0892 
     68 H68        34.2847  -43.3865  -58.3009 H         1 UNK         0.0892 
     69 H69        32.7032  -42.8532  -57.7236 H         1 UNK         0.0892 
     70 H70        34.4894  -42.6150  -55.0026 H         1 UNK         0.3107 
     71 H71        33.3005  -44.8901  -53.7970 H         1 UNK         0.0773 
     72 H72        34.1782  -44.0336  -51.6878 H         1 UNK         0.0680 
     73 H73        35.3507  -43.0375  -52.5079 H         1 UNK         0.0680 
     74 H74        31.2474  -41.7217  -51.2251 H         1 UNK         0.0650 
     75 H75        32.2855  -42.9631  -50.5718 H         1 UNK         0.0650 
     76 H76        30.0031  -44.0141  -50.1240 H         1 UNK         0.1397 
     77 H77        28.4197  -46.3669  -53.3352 H         1 UNK         0.1363 
     78 H78        31.4978  -43.5341  -54.1239 H         1 UNK         0.1355 
     79 H79        29.4710  -46.3935  -55.4562 H         1 UNK         0.0707 
     80 H80        31.1011  -45.7756  -55.5138 H         1 UNK         0.0707 
     81 H81        31.0382  -44.6978  -58.3102 H         1 UNK         0.1034 
     82 H82        30.1016  -46.1123  -57.9103 H         1 UNK         0.1034 
     83 H83        29.0067  -43.6509  -59.3371 H         1 UNK         0.0482 
     84 H84        28.0782  -46.5583  -60.9045 H         1 UNK         0.3460 
     85 H85        29.3120  -46.5181  -62.1414 H         1 UNK         0.3460 
     86 H86        27.6330  -46.0019  -58.2923 H         1 UNK         0.2989 
     87 H87        24.5323  -44.4424  -58.7489 H         1 UNK         0.0559 
     88 H88        24.4825  -45.5589  -60.9833 H         1 UNK         0.0848 
     89 H89        23.6252  -46.5142  -59.7871 H         1 UNK         0.0848 
     90 H90        25.2426  -46.9916  -60.3060 H         1 UNK         0.0848 
     91 H91        25.3708  -47.0756  -57.8522 H         1 UNK         0.3144 
     92 H92        26.9680  -46.2390  -55.0379 H         1 UNK         0.0727 
     93 H93        24.0444  -47.0059  -54.5418 H         1 UNK         0.0790 
     94 H94        24.8113  -45.5524  -53.9176 H         1 UNK         0.0790 
     95 H95        25.3777  -47.1211  -53.3912 H         1 UNK         0.0790 
     96 H96        25.6394  -48.6860  -55.4055 H         1 UNK         0.3215 
     97 H97        26.3023  -50.1712  -57.6066 H         1 UNK         0.0863 
     98 H98        29.3520  -50.0682  -57.2926 H         1 UNK         0.0808 
     99 H99        28.4593  -49.8243  -58.7888 H         1 UNK         0.0808 
    100 H100       28.4507  -51.4008  -58.0145 H         1 UNK         0.0808 
    101 H101       27.9465  -50.4086  -55.1211 H         1 UNK         0.3118 
    102 H102       25.4271  -52.2410  -53.4967 H         1 UNK         0.0546 
    103 H103       28.0622  -53.4983  -54.4459 H         1 UNK         0.0828 
    104 H104       26.4623  -54.1949  -54.6563 H         1 UNK         0.0828 
    105 H105       27.1228  -54.0066  -53.0413 H         1 UNK         0.0828 
    106 H106       28.1833  -51.5954  -52.8832 H         1 UNK         0.3005 
    107 H107       27.9316  -48.2929  -52.6491 H         1 UNK         0.1257 
    108 H108       27.6793  -49.5739  -49.8969 H         1 UNK         0.0775 
    109 H109       26.6350  -48.3202  -50.5087 H         1 UNK         0.0775 
    110 H110       27.1750  -46.1124  -51.1538 H         1 UNK         0.0840 
    111 H111       27.8955  -45.2408  -49.8304 H         1 UNK         0.0840 
    112 H112       29.8027  -49.9575  -51.2884 H         1 UNK         0.2987 
    113 H113       31.9114  -50.0493  -52.3609 H         1 UNK         0.0785 
    114 H114       30.7615  -52.2637  -52.1620 H         1 UNK         0.0798 
    115 H115       32.2916  -52.4477  -52.9971 H         1 UNK         0.0798 
    116 H116       30.7830  -52.4578  -53.9097 H         1 UNK         0.0798 
    117 H117       32.2664  -50.9077  -55.1097 H         1 UNK         0.3079 
    118 H118       33.8658  -49.8358  -56.3194 H         1 UNK         0.0794 
    119 H119       32.9941  -48.3289  -58.1176 H         1 UNK         0.0786 
    120 H120       32.0385  -47.4455  -56.9309 H         1 UNK         0.0786 
    121 H121       31.6736  -49.1275  -57.2765 H         1 UNK         0.0786 
    122 H122       34.2979  -46.9238  -56.1053 H         1 UNK         0.3032 
    123 H123       37.3262  -47.2379  -54.3103 H         1 UNK         0.1094 
    124 H124       37.1036  -46.5382  -57.2935 H         1 UNK         0.0794 
    125 H125       38.3753  -45.9919  -56.1990 H         1 UNK         0.0794 
    126 H126       38.2268  -47.6962  -56.5942 H         1 UNK         0.0794 
    127 H127       35.8297  -45.1456  -55.7131 H         1 UNK         0.3016 
@<TRIPOS>BOND
     1    1    2 1    
     2    1   67 1    
     3    1   68 1    
     4    1   69 1    
     5    2    3 2    
     6    2    4 am   BACKBONE|DICT|INTERRES
     7    4    5 1    
     8    4   70 1    
     9    5    6 1    
    10    5   65 1    
    11    5   71 1    
    12    6    7 1    
    13    6   72 1    
    14    6   73 1    
    15    7    8 1    
    16    8    9 1    
    17    8   74 1    
    18    8   75 1    
    19    9   10 ar   
    20    9   14 ar   
    21   10   11 ar   
    22   10   76 1    
    23   11   12 ar   
    24   11   48 1    
    25   12   13 ar   
    26   12   77 1    
    27   13   14 ar   
    28   13   15 1    
    29   14   78 1    
    30   15   16 1    
    31   15   79 1    
    32   15   80 1    
    33   16   17 1    
    34   17   18 1    
    35   17   81 1    
    36   17   82 1    
    37   18   19 1    
    38   18   22 1    
    39   18   83 1    
    40   19   20 am   BACKBONE|DICT|INTERRES
    41   19   21 2    
    42   20   84 1    
    43   20   85 1    
    44   22   23 am   BACKBONE|DICT|INTERRES
    45   22   86 1    
    46   23   24 2    
    47   23   25 1    
    48   25   26 1    
    49   25   27 1    
    50   25   87 1    
    51   26   88 1    
    52   26   89 1    
    53   26   90 1    
    54   27   28 am   BACKBONE|DICT|INTERRES
    55   27   91 1    
    56   28   29 2    
    57   28   30 1    
    58   30   31 1    
    59   30   32 1    
    60   30   92 1    
    61   31   93 1    
    62   31   94 1    
    63   31   95 1    
    64   32   33 am   BACKBONE|DICT|INTERRES
    65   32   96 1    
    66   33   34 2    
    67   33   35 1    
    68   35   36 1    
    69   35   37 1    
    70   35   97 1    
    71   36   98 1    
    72   36   99 1    
    73   36  100 1    
    74   37   38 am   BACKBONE|DICT|INTERRES
    75   37  101 1    
    76   38   39 2    
    77   38   40 1    
    78   40   41 1    
    79   40   42 1    
    80   40  102 1    
    81   41  103 1    
    82   41  104 1    
    83   41  105 1    
    84   42   43 am   BACKBONE|DICT|INTERRES
    85   42  106 1    
    86   43   44 2    
    87   43   45 1    
    88   45   46 1    
    89   45   49 1    
    90   45  107 1    
    91   46   47 1    
    92   46  108 1    
    93   46  109 1    
    94   47   48 1    
    95   48  110 1    
    96   48  111 1    
    97   49   50 am   BACKBONE|DICT|INTERRES
    98   49  112 1    
    99   50   51 2    
   100   50   52 1    
   101   52   53 1    
   102   52   54 1    
   103   52  113 1    
   104   53  114 1    
   105   53  115 1    
   106   53  116 1    
   107   54   55 am   BACKBONE|DICT|INTERRES
   108   54  117 1    
   109   55   56 2    
   110   55   57 1    
   111   57   58 1    
   112   57   59 1    
   113   57  118 1    
   114   58  119 1    
   115   58  120 1    
   116   58  121 1    
   117   59   60 am   BACKBONE|DICT|INTERRES
   118   59  122 1    
   119   60   61 2    
   120   60   62 1    
   121   62   63 1    
   122   62   64 1    
   123   62  123 1    
   124   63  124 1    
   125   63  125 1    
   126   63  126 1    
   127   64   65 am   BACKBONE|DICT|INTERRES
   128   64  127 1    
   129   65   66 2    
@<TRIPOS>SUBSTRUCTURE
     1 UNK         1 GROUP             0       ****    0 ROOT    
