@<TRIPOS>MOLECULE
3R134
127   129    1
SMALL
USER_CHARGES


@<TRIPOS>ATOM
      1 CA         32.5091  -46.6391  -51.2176 C.3       0 UNK        -0.1968 
      2 C          33.5767  -46.6784  -52.2992 C.2       0 UNK         0.4852 
      3 O          33.3551  -47.2930  -53.3438 O.2       0 UNK        -0.5359 
      4 N          34.7171  -46.0163  -52.0412 N.am      1 UNK        -0.4300 
      5 CA         35.8899  -45.8294  -52.9107 C.3       1 UNK         0.0863 
      6 C6         35.8147  -44.5679  -53.8260 C.3       11 UNK        -0.0953 
      7 S7         34.2885  -44.3887  -54.8175 S.3       11 UNK        -0.2369 
      8 C8         33.4212  -43.0723  -53.8992 C.3       11 UNK         0.0226 
      9 C9         31.9081  -43.2512  -53.9082 C.ar      11 UNK        -0.0699 
     10 C10        31.2018  -43.3084  -52.7023 C.ar      11 UNK        -0.0804 
     11 C11        29.8100  -43.4426  -52.6967 C.ar      11 UNK        -0.0871 
     12 C12        29.1220  -43.5319  -53.9106 C.ar      11 UNK        -0.1008 
     13 C13        29.8184  -43.4926  -55.1217 C.ar      11 UNK        -0.0735 
     14 C14        31.2076  -43.3367  -55.1151 C.ar      11 UNK        -0.0945 
     15 C15        29.0803  -43.6577  -56.4382 C.3       11 UNK         0.0169 
     16 S16        28.2998  -42.1096  -56.9887 S.3       11 UNK        -0.2669 
     17 C17        28.1711  -42.4122  -58.7869 C.3       11 UNK        -0.0850 
     18 CA         26.8380  -43.0697  -59.2336 C.3       10 UNK         0.0855 
     19 C          26.8174  -43.2224  -60.7838 C.2       10 UNK         0.5543 
     20 N          26.9817  -44.4212  -61.3338 N.am      10 UNK        -0.7343 
     21 O          26.6529  -42.2341  -61.4945 O.2       10 UNK        -0.5027 
     22 N          26.5756  -44.3239  -58.5124 N.am      10 UNK        -0.4495 
     23 C          25.4142  -44.9883  -58.5121 C.2       10 UNK         0.4903 
     24 O          24.3769  -44.5396  -59.0024 O.2       10 UNK        -0.4860 
     25 CA         25.3984  -46.3857  -57.8563 C.3       9 UNK         0.0227 
     26 CB         24.5425  -47.3857  -58.6609 C.3       9 UNK        -0.1964 
     27 N          26.7191  -46.9694  -57.5721 N.am      9 UNK        -0.4231 
     28 C          27.7009  -47.2624  -58.4412 C.2       9 UNK         0.5014 
     29 O          27.6780  -46.9561  -59.6347 O.2       9 UNK        -0.5270 
     30 CA         28.9150  -48.0248  -57.8806 C.3       8 UNK         0.0284 
     31 CB         29.9016  -47.0745  -57.1840 C.3       8 UNK        -0.1977 
     32 N          28.5268  -49.0846  -56.9493 N.am      8 UNK        -0.4342 
     33 C          27.9035  -50.2178  -57.3022 C.2       8 UNK         0.5039 
     34 O          27.6433  -50.5292  -58.4650 O.2       8 UNK        -0.5547 
     35 CA         27.4855  -51.1552  -56.1599 C.3       7 UNK         0.0281 
     36 CB         28.6776  -51.9919  -55.6648 C.3       7 UNK        -0.1963 
     37 N          26.8981  -50.4076  -55.0464 N.am      7 UNK        -0.4444 
     38 C          25.6435  -49.9350  -55.0371 C.2       7 UNK         0.5104 
     39 O          24.8281  -50.1387  -55.9364 O.2       7 UNK        -0.5100 
     40 CA         25.2156  -49.0966  -53.8189 C.3       6 UNK         0.0396 
     41 CB         24.4734  -49.9757  -52.7998 C.3       6 UNK        -0.1801 
     42 N          26.3308  -48.4211  -53.1499 N.am      6 UNK        -0.4747 
     43 C          26.9949  -47.3697  -53.6515 C.2       6 UNK         0.5012 
     44 O          26.7496  -46.8589  -54.7437 O.2       6 UNK        -0.5003 
     45 CA         28.1695  -46.8370  -52.8093 C.3       5 UNK         0.0782 
     46 C46        27.6433  -45.9090  -51.6873 C.3       11 UNK        -0.0868 
     47 S47        28.9758  -45.1616  -50.6905 S.3       11 UNK        -0.2515 
     48 C48        29.0568  -43.4771  -51.3754 C.3       11 UNK         0.0199 
     49 N          29.0314  -47.9108  -52.2974 N.am      5 UNK        -0.4607 
     50 C          29.6663  -48.8044  -53.0644 C.2       4 UNK         0.5031 
     51 O          29.5145  -48.8943  -54.2869 O.2       4 UNK        -0.5119 
     52 CA         30.5953  -49.7895  -52.3528 C.3       4 UNK         0.0263 
     53 CB         29.8116  -50.9974  -51.8126 C.3       4 UNK        -0.1967 
     54 N          31.5691  -50.2342  -53.3384 N.am      4 UNK        -0.4237 
     55 C          32.8568  -50.5113  -53.1238 C.2       3 UNK         0.4908 
     56 O          33.3885  -50.5135  -52.0125 O.2       3 UNK        -0.5102 
     57 CA         33.6971  -50.8347  -54.3650 C.3       3 UNK         0.0241 
     58 CB         32.8663  -51.3017  -55.5851 C.3       3 UNK        -0.1971 
     59 N          34.4960  -49.6617  -54.7147 N.am      3 UNK        -0.4139 
     60 C          35.6299  -49.7071  -55.4267 C.2       2 UNK         0.5016 
     61 O          36.1371  -50.7553  -55.8304 O.2       2 UNK        -0.5319 
     62 CA         36.3208  -48.3770  -55.7806 C.3       2 UNK         0.0286 
     63 CB         36.0123  -47.9864  -57.2356 C.3       2 UNK        -0.1963 
     64 N          35.9649  -47.2566  -54.9098 N.am      2 UNK        -0.4790 
     65 C          36.3428  -47.1171  -53.6337 C.2       1 UNK         0.5024 
     66 O          37.0310  -47.9418  -53.0298 O.2       1 UNK        -0.4888 
     67 H67        32.6693  -45.8196  -50.5173 H         1 UNK         0.0892 
     68 H68        31.5286  -46.5009  -51.6714 H         1 UNK         0.0892 
     69 H69        32.5064  -47.5736  -50.6581 H         1 UNK         0.0892 
     70 H70        34.8081  -45.5793  -51.1351 H         1 UNK         0.3107 
     71 H71        36.7043  -45.6272  -52.2128 H         1 UNK         0.0773 
     72 H72        36.6660  -44.5409  -54.5090 H         1 UNK         0.0680 
     73 H73        35.9368  -43.6770  -53.2090 H         1 UNK         0.0680 
     74 H74        33.6743  -42.1061  -54.3373 H         1 UNK         0.0650 
     75 H75        33.7804  -43.0485  -52.8695 H         1 UNK         0.0650 
     76 H76        31.7333  -43.2407  -51.7629 H         1 UNK         0.1397 
     77 H77        28.0461  -43.6423  -53.9166 H         1 UNK         0.1363 
     78 H78        31.7500  -43.2975  -56.0499 H         1 UNK         0.1355 
     79 H79        29.7742  -44.0131  -57.2004 H         1 UNK         0.0707 
     80 H80        28.3154  -44.4272  -56.3281 H         1 UNK         0.0707 
     81 H81        28.2845  -41.4439  -59.2788 H         1 UNK         0.1034 
     82 H82        29.0241  -43.0058  -59.1210 H         1 UNK         0.1034 
     83 H83        26.0299  -42.3811  -58.9793 H         1 UNK         0.0482 
     84 H84        27.1345  -45.2392  -60.7549 H         1 UNK         0.3460 
     85 H85        26.9661  -44.5112  -62.3371 H         1 UNK         0.3460 
     86 H86        27.3754  -44.7777  -58.1025 H         1 UNK         0.2989 
     87 H87        24.9209  -46.2521  -56.8846 H         1 UNK         0.0559 
     88 H88        24.9337  -47.5312  -59.6684 H         1 UNK         0.0848 
     89 H89        23.5134  -47.0379  -58.7580 H         1 UNK         0.0848 
     90 H90        24.5074  -48.3594  -58.1718 H         1 UNK         0.0848 
     91 H91        26.8720  -47.1807  -56.5879 H         1 UNK         0.3144 
     92 H92        29.4311  -48.4885  -58.7240 H         1 UNK         0.0727 
     93 H93        29.4641  -46.6123  -56.2984 H         1 UNK         0.0790 
     94 H94        30.2198  -46.2791  -57.8584 H         1 UNK         0.0790 
     95 H95        30.8000  -47.6042  -56.8657 H         1 UNK         0.0790 
     96 H96        28.7586  -48.9413  -55.9679 H         1 UNK         0.3215 
     97 H97        26.7339  -51.8445  -56.5518 H         1 UNK         0.0863 
     98 H98        28.3758  -52.6871  -54.8814 H         1 UNK         0.0808 
     99 H99        29.4811  -51.3707  -55.2712 H         1 UNK         0.0808 
    100 H100       29.0976  -52.5851  -56.4782 H         1 UNK         0.0808 
    101 H101       27.5142  -50.1493  -54.2894 H         1 UNK         0.3118 
    102 H102       24.5217  -48.3323  -54.1761 H         1 UNK         0.0546 
    103 H103       25.1179  -50.7551  -52.3912 H         1 UNK         0.0828 
    104 H104       23.6179  -50.4705  -53.2618 H         1 UNK         0.0828 
    105 H105       24.0912  -49.3839  -51.9680 H         1 UNK         0.0828 
    106 H106       26.6122  -48.7829  -52.2497 H         1 UNK         0.3005 
    107 H107       28.7886  -46.2423  -53.4838 H         1 UNK         0.1257 
    108 H108       26.9977  -46.4653  -51.0049 H         1 UNK         0.0775 
    109 H109       27.0197  -45.1160  -52.1045 H         1 UNK         0.0775 
    110 H110       28.0520  -43.0675  -51.4907 H         1 UNK         0.0840 
    111 H111       29.5590  -42.8322  -50.6526 H         1 UNK         0.0840 
    112 H112       29.1962  -47.9051  -51.3011 H         1 UNK         0.2987 
    113 H113       31.1001  -49.2759  -51.5333 H         1 UNK         0.0785 
    114 H114       29.0726  -50.6881  -51.0726 H         1 UNK         0.0798 
    115 H115       30.4763  -51.7114  -51.3259 H         1 UNK         0.0798 
    116 H116       29.2812  -51.5249  -52.6062 H         1 UNK         0.0798 
    117 H117       31.2381  -50.1613  -54.2920 H         1 UNK         0.3079 
    118 H118       34.3672  -51.6475  -54.0765 H         1 UNK         0.0794 
    119 H119       32.1999  -52.1238  -55.3196 H         1 UNK         0.0786 
    120 H120       33.5136  -51.6674  -56.3823 H         1 UNK         0.0786 
    121 H121       32.2596  -50.4973  -56.0032 H         1 UNK         0.0786 
    122 H122       34.1628  -48.7676  -54.3554 H         1 UNK         0.3032 
    123 H123       37.3969  -48.5435  -55.6916 H         1 UNK         0.1094 
    124 H124       36.5646  -47.0950  -57.5338 H         1 UNK         0.0794 
    125 H125       36.2941  -48.7850  -57.9235 H         1 UNK         0.0794 
    126 H126       34.9495  -47.7893  -57.3828 H         1 UNK         0.0794 
    127 H127       35.3552  -46.5457  -55.2943 H         1 UNK         0.3016 
@<TRIPOS>BOND
     1    1    2 1    
     2    1   67 1    
     3    1   68 1    
     4    1   69 1    
     5    2    3 2    
     6    2    4 am   BACKBONE|DICT|INTERRES
     7    4    5 1    
     8    4   70 1    
     9    5    6 1    
    10    5   65 1    
    11    5   71 1    
    12    6    7 1    
    13    6   72 1    
    14    6   73 1    
    15    7    8 1    
    16    8    9 1    
    17    8   74 1    
    18    8   75 1    
    19    9   10 ar   
    20    9   14 ar   
    21   10   11 ar   
    22   10   76 1    
    23   11   12 ar   
    24   11   48 1    
    25   12   13 ar   
    26   12   77 1    
    27   13   14 ar   
    28   13   15 1    
    29   14   78 1    
    30   15   16 1    
    31   15   79 1    
    32   15   80 1    
    33   16   17 1    
    34   17   18 1    
    35   17   81 1    
    36   17   82 1    
    37   18   19 1    
    38   18   22 1    
    39   18   83 1    
    40   19   20 am   BACKBONE|DICT|INTERRES
    41   19   21 2    
    42   20   84 1    
    43   20   85 1    
    44   22   23 am   BACKBONE|DICT|INTERRES
    45   22   86 1    
    46   23   24 2    
    47   23   25 1    
    48   25   26 1    
    49   25   27 1    
    50   25   87 1    
    51   26   88 1    
    52   26   89 1    
    53   26   90 1    
    54   27   28 am   BACKBONE|DICT|INTERRES
    55   27   91 1    
    56   28   29 2    
    57   28   30 1    
    58   30   31 1    
    59   30   32 1    
    60   30   92 1    
    61   31   93 1    
    62   31   94 1    
    63   31   95 1    
    64   32   33 am   BACKBONE|DICT|INTERRES
    65   32   96 1    
    66   33   34 2    
    67   33   35 1    
    68   35   36 1    
    69   35   37 1    
    70   35   97 1    
    71   36   98 1    
    72   36   99 1    
    73   36  100 1    
    74   37   38 am   BACKBONE|DICT|INTERRES
    75   37  101 1    
    76   38   39 2    
    77   38   40 1    
    78   40   41 1    
    79   40   42 1    
    80   40  102 1    
    81   41  103 1    
    82   41  104 1    
    83   41  105 1    
    84   42   43 am   BACKBONE|DICT|INTERRES
    85   42  106 1    
    86   43   44 2    
    87   43   45 1    
    88   45   46 1    
    89   45   49 1    
    90   45  107 1    
    91   46   47 1    
    92   46  108 1    
    93   46  109 1    
    94   47   48 1    
    95   48  110 1    
    96   48  111 1    
    97   49   50 am   BACKBONE|DICT|INTERRES
    98   49  112 1    
    99   50   51 2    
   100   50   52 1    
   101   52   53 1    
   102   52   54 1    
   103   52  113 1    
   104   53  114 1    
   105   53  115 1    
   106   53  116 1    
   107   54   55 am   BACKBONE|DICT|INTERRES
   108   54  117 1    
   109   55   56 2    
   110   55   57 1    
   111   57   58 1    
   112   57   59 1    
   113   57  118 1    
   114   58  119 1    
   115   58  120 1    
   116   58  121 1    
   117   59   60 am   BACKBONE|DICT|INTERRES
   118   59  122 1    
   119   60   61 2    
   120   60   62 1    
   121   62   63 1    
   122   62   64 1    
   123   62  123 1    
   124   63  124 1    
   125   63  125 1    
   126   63  126 1    
   127   64   65 am   BACKBONE|DICT|INTERRES
   128   64  127 1    
   129   65   66 2    
@<TRIPOS>SUBSTRUCTURE
     1 UNK         1 GROUP             0       ****    0 ROOT    
