@<TRIPOS>MOLECULE
3R134
127   129    1
SMALL
USER_CHARGES


@<TRIPOS>ATOM
      1 CA         34.3409  -46.9715  -57.1496 C.3       0 UNK        -0.1968 
      2 C          35.2755  -45.9615  -56.4869 C.2       0 UNK         0.4852 
      3 O          36.2927  -45.6051  -57.0787 O.2       0 UNK        -0.5359 
      4 N          34.9843  -45.4716  -55.2728 N.am      1 UNK        -0.4300 
      5 CA         33.8285  -45.8167  -54.4325 C.3       1 UNK         0.0863 
      6 C6         33.3784  -44.6308  -53.5462 C.3       11 UNK        -0.0953 
      7 S7         32.8331  -43.2137  -54.5554 S.3       11 UNK        -0.2369 
      8 C8         31.7755  -42.3066  -53.3839 C.3       11 UNK         0.0226 
      9 C9         30.4466  -43.0067  -53.1328 C.ar      11 UNK        -0.0699 
     10 C10        30.1601  -43.5505  -51.8767 C.ar      11 UNK        -0.0804 
     11 C11        28.9282  -44.1649  -51.6373 C.ar      11 UNK        -0.0871 
     12 C12        27.9789  -44.2221  -52.6615 C.ar      11 UNK        -0.1008 
     13 C13        28.2542  -43.7019  -53.9289 C.ar      11 UNK        -0.0735 
     14 C14        29.4936  -43.0898  -54.1537 C.ar      11 UNK        -0.0945 
     15 C15        27.2121  -43.8713  -55.0347 C.3       11 UNK         0.0169 
     16 S16        26.9961  -42.4115  -56.1043 S.3       11 UNK        -0.2669 
     17 C17        28.1968  -42.7358  -57.4413 C.3       11 UNK        -0.0850 
     18 CA         27.5160  -43.2187  -58.7467 C.3       10 UNK         0.0855 
     19 C          28.5360  -43.2265  -59.9180 C.2       10 UNK         0.5543 
     20 N          28.6177  -42.1425  -60.6768 N.am      10 UNK        -0.7343 
     21 O          29.2814  -44.1845  -60.1128 O.2       10 UNK        -0.5027 
     22 N          26.8691  -44.5298  -58.5782 N.am      10 UNK        -0.4495 
     23 C          25.9892  -45.0519  -59.4425 C.2       10 UNK         0.4903 
     24 O          25.5357  -44.4366  -60.4085 O.2       10 UNK        -0.4860 
     25 CA         25.5362  -46.5035  -59.2147 C.3       9 UNK         0.0227 
     26 CB         26.2275  -47.4375  -60.2221 C.3       9 UNK        -0.1964 
     27 N          25.8027  -46.9903  -57.8584 N.am      9 UNK        -0.4231 
     28 C          24.9396  -46.9036  -56.8343 C.2       9 UNK         0.5014 
     29 O          23.8552  -46.3238  -56.9165 O.2       9 UNK        -0.5270 
     30 CA         25.3389  -47.5605  -55.4926 C.3       8 UNK         0.0284 
     31 CB         24.1309  -48.1546  -54.7381 C.3       8 UNK        -0.1977 
     32 N          26.4244  -48.5428  -55.6049 N.am      8 UNK        -0.4342 
     33 C          26.4372  -49.6901  -56.3046 C.2       8 UNK         0.5039 
     34 O          25.4404  -50.1618  -56.8544 O.2       8 UNK        -0.5547 
     35 CA         27.7979  -50.4130  -56.4584 C.3       7 UNK         0.0281 
     36 CB         27.9094  -51.1608  -57.8032 C.3       7 UNK        -0.1963 
     37 N          28.9723  -49.5490  -56.2717 N.am      7 UNK        -0.4444 
     38 C          29.2472  -48.3900  -56.8890 C.2       7 UNK         0.5104 
     39 O          28.5529  -47.9136  -57.7887 O.2       7 UNK        -0.5100 
     40 CA         30.4377  -47.5845  -56.3254 C.3       6 UNK         0.0396 
     41 CB         30.4000  -46.1099  -56.7808 C.3       6 UNK        -0.1801 
     42 N          30.5354  -47.6595  -54.8577 N.am      6 UNK        -0.4747 
     43 C          29.5722  -47.3778  -53.9619 C.2       6 UNK         0.5012 
     44 O          28.4392  -47.0134  -54.2762 O.2       6 UNK        -0.5003 
     45 CA         29.9454  -47.6186  -52.4817 C.3       5 UNK         0.0782 
     46 C46        28.8018  -47.3535  -51.4519 C.3       11 UNK        -0.0868 
     47 S47        29.4208  -46.3903  -50.0302 S.3       11 UNK        -0.2515 
     48 C48        28.6159  -44.7715  -50.2754 C.3       11 UNK         0.0199 
     49 N          30.5631  -48.9433  -52.3188 N.am      5 UNK        -0.4607 
     50 C          29.9609  -50.1225  -52.5361 C.2       4 UNK         0.5031 
     51 O          28.7806  -50.2365  -52.8719 O.2       4 UNK        -0.5119 
     52 CA         30.8374  -51.3807  -52.3760 C.3       4 UNK         0.0263 
     53 CB         30.0815  -52.6784  -52.7348 C.3       4 UNK        -0.1967 
     54 N          32.0994  -51.3143  -53.1244 N.am      4 UNK        -0.4237 
     55 C          32.2622  -51.0914  -54.4363 C.2       3 UNK         0.4908 
     56 O          31.3414  -50.8066  -55.2034 O.2       3 UNK        -0.5102 
     57 CA         33.7070  -51.1853  -54.9702 C.3       3 UNK         0.0241 
     58 CB         33.7678  -51.1256  -56.5087 C.3       3 UNK        -0.1971 
     59 N          34.5594  -50.1285  -54.4235 N.am      3 UNK        -0.4139 
     60 C          35.0158  -50.0557  -53.1657 C.2       2 UNK         0.5016 
     61 O          34.8479  -50.9425  -52.3268 O.2       2 UNK        -0.5319 
     62 CA         35.7397  -48.7569  -52.7617 C.3       2 UNK         0.0286 
     63 CB         37.2618  -48.9319  -52.8842 C.3       2 UNK        -0.1963 
     64 N          35.3266  -47.5673  -53.5217 N.am      2 UNK        -0.4790 
     65 C          34.0775  -47.0766  -53.5783 C.2       1 UNK         0.5024 
     66 O          33.1198  -47.6071  -53.0173 O.2       1 UNK        -0.4888 
     67 H67        34.8327  -47.4432  -58.0002 H         1 UNK         0.0892 
     68 H68        34.0431  -47.7630  -56.4653 H         1 UNK         0.0892 
     69 H69        33.4462  -46.4712  -57.5189 H         1 UNK         0.0892 
     70 H70        35.6057  -44.7796  -54.8780 H         1 UNK         0.3107 
     71 H71        32.9864  -46.0615  -55.0775 H         1 UNK         0.0773 
     72 H72        32.5500  -44.9304  -52.9015 H         1 UNK         0.0680 
     73 H73        34.1839  -44.3050  -52.8855 H         1 UNK         0.0680 
     74 H74        32.3217  -42.1533  -52.4518 H         1 UNK         0.0650 
     75 H75        31.5793  -41.3131  -53.7893 H         1 UNK         0.0650 
     76 H76        30.8941  -43.4981  -51.0841 H         1 UNK         0.1397 
     77 H77        27.0284  -44.7050  -52.4801 H         1 UNK         0.1363 
     78 H78        29.7305  -42.6749  -55.1215 H         1 UNK         0.1355 
     79 H79        26.2386  -44.0866  -54.5917 H         1 UNK         0.0707 
     80 H80        27.4622  -44.7453  -55.6352 H         1 UNK         0.0707 
     81 H81        28.7322  -41.8006  -57.6180 H         1 UNK         0.1034 
     82 H82        28.9520  -43.4515  -57.1174 H         1 UNK         0.1034 
     83 H83        26.7315  -42.5004  -58.9957 H         1 UNK         0.0482 
     84 H84        28.0166  -41.3483  -60.5197 H         1 UNK         0.3460 
     85 H85        29.2856  -42.1226  -61.4317 H         1 UNK         0.3460 
     86 H86        27.2183  -45.1172  -57.8379 H         1 UNK         0.2989 
     87 H87        24.4621  -46.5460  -59.4073 H         1 UNK         0.0559 
     88 H88        25.9088  -48.4716  -60.0893 H         1 UNK         0.0848 
     89 H89        25.9868  -47.1528  -61.2472 H         1 UNK         0.0848 
     90 H90        27.3134  -47.4061  -60.1237 H         1 UNK         0.0848 
     91 H91        26.6959  -47.4579  -57.7176 H         1 UNK         0.3144 
     92 H92        25.7388  -46.7527  -54.8783 H         1 UNK         0.0727 
     93 H93        24.4353  -48.5985  -53.7903 H         1 UNK         0.0790 
     94 H94        23.6261  -48.9236  -55.3233 H         1 UNK         0.0790 
     95 H95        23.3930  -47.3843  -54.5107 H         1 UNK         0.0790 
     96 H96        27.2984  -48.2344  -55.1828 H         1 UNK         0.3215 
     97 H97        27.8385  -51.1525  -55.6571 H         1 UNK         0.0863 
     98 H98        28.8632  -51.6815  -57.8886 H         1 UNK         0.0808 
     99 H99        27.8212  -50.4792  -58.6500 H         1 UNK         0.0808 
    100 H100       27.1235  -51.9103  -57.9043 H         1 UNK         0.0808 
    101 H101       29.6469  -49.8747  -55.5834 H         1 UNK         0.3118 
    102 H102       31.3416  -48.0444  -56.7266 H         1 UNK         0.0546 
    103 H103       29.4925  -45.6181  -56.4358 H         1 UNK         0.0828 
    104 H104       30.4193  -46.0311  -57.8688 H         1 UNK         0.0828 
    105 H105       31.2449  -45.5383  -56.4026 H         1 UNK         0.0828 
    106 H106       31.4061  -48.0192  -54.4888 H         1 UNK         0.3005 
    107 H107       30.7351  -46.8876  -52.3014 H         1 UNK         0.1257 
    108 H108       27.9475  -46.8335  -51.8820 H         1 UNK         0.0775 
    109 H109       28.3837  -48.2844  -51.0682 H         1 UNK         0.0775 
    110 H110       27.5387  -44.8859  -50.1434 H         1 UNK         0.0840 
    111 H111       28.9450  -44.0904  -49.4892 H         1 UNK         0.0840 
    112 H112       31.5532  -48.9294  -52.1075 H         1 UNK         0.2987 
    113 H113       31.1044  -51.4346  -51.3195 H         1 UNK         0.0785 
    114 H114       30.7024  -53.5585  -52.5679 H         1 UNK         0.0798 
    115 H115       29.7637  -52.6854  -53.7783 H         1 UNK         0.0798 
    116 H116       29.1871  -52.7936  -52.1212 H         1 UNK         0.0798 
    117 H117       32.9483  -51.4504  -52.5813 H         1 UNK         0.3079 
    118 H118       34.1079  -52.1520  -54.6577 H         1 UNK         0.0794 
    119 H119       33.1725  -51.9249  -56.9522 H         1 UNK         0.0786 
    120 H120       34.7887  -51.2458  -56.8715 H         1 UNK         0.0786 
    121 H121       33.3817  -50.1819  -56.8958 H         1 UNK         0.0786 
    122 H122       34.7572  -49.3502  -55.0320 H         1 UNK         0.3032 
    123 H123       35.4982  -48.5746  -51.7120 H         1 UNK         0.1094 
    124 H124       37.6031  -49.7956  -52.3113 H         1 UNK         0.0794 
    125 H125       37.5695  -49.0853  -53.9193 H         1 UNK         0.0794 
    126 H126       37.7943  -48.0617  -52.4998 H         1 UNK         0.0794 
    127 H127       36.0553  -47.0693  -54.0136 H         1 UNK         0.3016 
@<TRIPOS>BOND
     1    1    2 1    
     2    1   67 1    
     3    1   68 1    
     4    1   69 1    
     5    2    3 2    
     6    2    4 am   BACKBONE|DICT|INTERRES
     7    4    5 1    
     8    4   70 1    
     9    5    6 1    
    10    5   65 1    
    11    5   71 1    
    12    6    7 1    
    13    6   72 1    
    14    6   73 1    
    15    7    8 1    
    16    8    9 1    
    17    8   74 1    
    18    8   75 1    
    19    9   10 ar   
    20    9   14 ar   
    21   10   11 ar   
    22   10   76 1    
    23   11   12 ar   
    24   11   48 1    
    25   12   13 ar   
    26   12   77 1    
    27   13   14 ar   
    28   13   15 1    
    29   14   78 1    
    30   15   16 1    
    31   15   79 1    
    32   15   80 1    
    33   16   17 1    
    34   17   18 1    
    35   17   81 1    
    36   17   82 1    
    37   18   19 1    
    38   18   22 1    
    39   18   83 1    
    40   19   20 am   BACKBONE|DICT|INTERRES
    41   19   21 2    
    42   20   84 1    
    43   20   85 1    
    44   22   23 am   BACKBONE|DICT|INTERRES
    45   22   86 1    
    46   23   24 2    
    47   23   25 1    
    48   25   26 1    
    49   25   27 1    
    50   25   87 1    
    51   26   88 1    
    52   26   89 1    
    53   26   90 1    
    54   27   28 am   BACKBONE|DICT|INTERRES
    55   27   91 1    
    56   28   29 2    
    57   28   30 1    
    58   30   31 1    
    59   30   32 1    
    60   30   92 1    
    61   31   93 1    
    62   31   94 1    
    63   31   95 1    
    64   32   33 am   BACKBONE|DICT|INTERRES
    65   32   96 1    
    66   33   34 2    
    67   33   35 1    
    68   35   36 1    
    69   35   37 1    
    70   35   97 1    
    71   36   98 1    
    72   36   99 1    
    73   36  100 1    
    74   37   38 am   BACKBONE|DICT|INTERRES
    75   37  101 1    
    76   38   39 2    
    77   38   40 1    
    78   40   41 1    
    79   40   42 1    
    80   40  102 1    
    81   41  103 1    
    82   41  104 1    
    83   41  105 1    
    84   42   43 am   BACKBONE|DICT|INTERRES
    85   42  106 1    
    86   43   44 2    
    87   43   45 1    
    88   45   46 1    
    89   45   49 1    
    90   45  107 1    
    91   46   47 1    
    92   46  108 1    
    93   46  109 1    
    94   47   48 1    
    95   48  110 1    
    96   48  111 1    
    97   49   50 am   BACKBONE|DICT|INTERRES
    98   49  112 1    
    99   50   51 2    
   100   50   52 1    
   101   52   53 1    
   102   52   54 1    
   103   52  113 1    
   104   53  114 1    
   105   53  115 1    
   106   53  116 1    
   107   54   55 am   BACKBONE|DICT|INTERRES
   108   54  117 1    
   109   55   56 2    
   110   55   57 1    
   111   57   58 1    
   112   57   59 1    
   113   57  118 1    
   114   58  119 1    
   115   58  120 1    
   116   58  121 1    
   117   59   60 am   BACKBONE|DICT|INTERRES
   118   59  122 1    
   119   60   61 2    
   120   60   62 1    
   121   62   63 1    
   122   62   64 1    
   123   62  123 1    
   124   63  124 1    
   125   63  125 1    
   126   63  126 1    
   127   64   65 am   BACKBONE|DICT|INTERRES
   128   64  127 1    
   129   65   66 2    
@<TRIPOS>SUBSTRUCTURE
     1 UNK         1 GROUP             0       ****    0 ROOT    
