@<TRIPOS>MOLECULE
3R134
127   129    1
SMALL
USER_CHARGES


@<TRIPOS>ATOM
      1 CA         38.2549  -42.8664  -51.7090 C.3       0 UNK        -0.1968 
      2 C          38.0798  -43.7493  -52.9357 C.2       0 UNK         0.4852 
      3 O          39.0597  -44.3068  -53.4323 O.2       0 UNK        -0.5359 
      4 N          36.8402  -43.8787  -53.4277 N.am      1 UNK        -0.4300 
      5 CA         36.4709  -44.7039  -54.5850 C.3       1 UNK         0.0863 
      6 C6         35.0959  -44.3028  -55.1801 C.3       11 UNK        -0.0953 
      7 S7         33.7571  -44.1093  -53.9506 S.3       11 UNK        -0.2369 
      8 C8         32.6478  -45.4946  -54.3483 C.3       11 UNK         0.0226 
      9 C9         31.2445  -45.2082  -53.8357 C.ar      11 UNK        -0.0699 
     10 C10        30.8976  -45.4935  -52.5111 C.ar      11 UNK        -0.0804 
     11 C11        29.6192  -45.1865  -52.0306 C.ar      11 UNK        -0.0871 
     12 C12        28.6850  -44.5983  -52.8881 C.ar      11 UNK        -0.1008 
     13 C13        29.0164  -44.3242  -54.2177 C.ar      11 UNK        -0.0735 
     14 C14        30.2973  -44.6288  -54.6852 C.ar      11 UNK        -0.0945 
     15 C15        27.9978  -43.6733  -55.1383 C.3       11 UNK         0.0169 
     16 S16        26.6811  -44.8376  -55.5964 S.3       11 UNK        -0.2669 
     17 C17        25.5934  -43.7367  -56.5614 C.3       11 UNK        -0.0850 
     18 CA         24.9248  -44.4364  -57.7725 C.3       10 UNK         0.0855 
     19 C          23.9565  -43.4447  -58.4764 C.2       10 UNK         0.5543 
     20 N          22.6715  -43.4959  -58.1534 N.am      10 UNK        -0.7343 
     21 O          24.3698  -42.5997  -59.2686 O.2       10 UNK        -0.5027 
     22 N          25.9268  -45.0229  -58.6763 N.am      10 UNK        -0.4495 
     23 C          25.6826  -45.6676  -59.8239 C.2       10 UNK         0.4903 
     24 O          24.5561  -45.8789  -60.2744 O.2       10 UNK        -0.4860 
     25 CA         26.9008  -46.1892  -60.6055 C.3       9 UNK         0.0227 
     26 CB         27.6609  -45.0446  -61.3051 C.3       9 UNK        -0.1964 
     27 N          27.7906  -47.0412  -59.8072 N.am      9 UNK        -0.4231 
     28 C          28.5906  -46.7172  -58.7832 C.2       9 UNK         0.5014 
     29 O          28.7374  -45.5662  -58.3672 O.2       9 UNK        -0.5270 
     30 CA         29.3287  -47.8910  -58.1039 C.3       8 UNK         0.0284 
     31 CB         30.2998  -47.4129  -57.0104 C.3       8 UNK        -0.1977 
     32 N          28.4080  -48.8666  -57.5109 N.am      8 UNK        -0.4342 
     33 C          27.6051  -49.7102  -58.1751 C.2       8 UNK         0.5039 
     34 O          27.5992  -49.8209  -59.4027 O.2       8 UNK        -0.5547 
     35 CA         26.6128  -50.5356  -57.3387 C.3       7 UNK         0.0281 
     36 CB         27.2723  -51.8197  -56.8141 C.3       7 UNK        -0.1963 
     37 N          26.0615  -49.7699  -56.2184 N.am      7 UNK        -0.4444 
     38 C          25.2122  -48.7399  -56.3349 C.2       7 UNK         0.5104 
     39 O          24.7239  -48.3806  -57.4059 O.2       7 UNK        -0.5100 
     40 CA         24.8614  -47.9541  -55.0563 C.3       6 UNK         0.0396 
     41 CB         23.6297  -48.5496  -54.3466 C.3       6 UNK        -0.1801 
     42 N          25.9993  -47.7627  -54.1412 N.am      6 UNK        -0.4747 
     43 C          26.6242  -48.6789  -53.3893 C.2       6 UNK         0.5012 
     44 O          26.2548  -49.8525  -53.2980 O.2       6 UNK        -0.5003 
     45 CA         27.8979  -48.2211  -52.6503 C.3       5 UNK         0.0782 
     46 C46        27.5530  -47.6524  -51.2500 C.3       11 UNK        -0.0868 
     47 S47        29.0330  -47.2450  -50.2569 S.3       11 UNK        -0.2515 
     48 C48        29.2519  -45.4675  -50.5805 C.3       11 UNK         0.0199 
     49 N          28.8798  -49.3062  -52.5775 N.am      5 UNK        -0.4607 
     50 C          29.4880  -49.8636  -53.6289 C.2       4 UNK         0.5031 
     51 O          29.2602  -49.5568  -54.8015 O.2       4 UNK        -0.5119 
     52 CA         30.5101  -50.9666  -53.3105 C.3       4 UNK         0.0263 
     53 CB         29.9496  -52.3510  -53.6743 C.3       4 UNK        -0.1967 
     54 N          31.7801  -50.7575  -54.0076 N.am      4 UNK        -0.4237 
     55 C          32.6044  -49.7229  -53.7960 C.2       3 UNK         0.4908 
     56 O          32.3870  -48.8261  -52.9777 O.2       3 UNK        -0.5102 
     57 CA         33.8793  -49.6936  -54.6600 C.3       3 UNK         0.0241 
     58 CB         33.5676  -49.1870  -56.0781 C.3       3 UNK        -0.1971 
     59 N          34.9318  -48.8506  -54.0920 N.am      3 UNK        -0.4139 
     60 C          35.5831  -49.0588  -52.9425 C.2       2 UNK         0.5016 
     61 O          35.4142  -50.0555  -52.2375 O.2       2 UNK        -0.5319 
     62 CA         36.5998  -47.9907  -52.4842 C.3       2 UNK         0.0286 
     63 CB         38.0438  -48.4886  -52.6945 C.3       2 UNK        -0.1963 
     64 N          36.4343  -46.6346  -53.0422 N.am      2 UNK        -0.4790 
     65 C          36.5617  -46.2205  -54.3137 C.2       1 UNK         0.5024 
     66 O          36.7406  -46.9824  -55.2639 O.2       1 UNK        -0.4888 
     67 H67        38.6695  -43.4469  -50.8852 H         1 UNK         0.0892 
     68 H68        38.9412  -42.0494  -51.9298 H         1 UNK         0.0892 
     69 H69        37.3102  -42.4351  -51.3781 H         1 UNK         0.0892 
     70 H70        36.0709  -43.3927  -52.9869 H         1 UNK         0.3107 
     71 H71        37.2147  -44.5061  -55.3604 H         1 UNK         0.0773 
     72 H72        35.2008  -43.3378  -55.6782 H         1 UNK         0.0680 
     73 H73        34.7922  -44.9944  -55.9683 H         1 UNK         0.0680 
     74 H74        33.0396  -46.4097  -53.9038 H         1 UNK         0.0650 
     75 H75        32.6202  -45.6568  -55.4266 H         1 UNK         0.0650 
     76 H76        31.6262  -45.9461  -51.8520 H         1 UNK         0.1397 
     77 H77        27.6962  -44.3524  -52.5249 H         1 UNK         0.1363 
     78 H78        30.5606  -44.4067  -55.7106 H         1 UNK         0.1355 
     79 H79        27.5612  -42.8066  -54.6396 H         1 UNK         0.0707 
     80 H80        28.4793  -43.3040  -56.0455 H         1 UNK         0.0707 
     81 H81        24.8345  -43.3457  -55.8807 H         1 UNK         0.1034 
     82 H82        26.1658  -42.8717  -56.9033 H         1 UNK         0.1034 
     83 H83        24.3338  -45.2729  -57.3945 H         1 UNK         0.0482 
     84 H84        22.3250  -44.1784  -57.4971 H         1 UNK         0.3460 
     85 H85        22.0312  -42.8484  -58.5861 H         1 UNK         0.3460 
     86 H86        26.8964  -44.9458  -58.3826 H         1 UNK         0.2989 
     87 H87        26.5128  -46.8411  -61.3898 H         1 UNK         0.0559 
     88 H88        28.0715  -44.3265  -60.5949 H         1 UNK         0.0848 
     89 H89        26.9979  -44.4921  -61.9720 H         1 UNK         0.0848 
     90 H90        28.4839  -45.4263  -61.9092 H         1 UNK         0.0848 
     91 H91        27.6980  -48.0413  -59.9810 H         1 UNK         0.3144 
     92 H92        29.9142  -48.3962  -58.8746 H         1 UNK         0.0727 
     93 H93        29.7666  -46.9294  -56.1913 H         1 UNK         0.0790 
     94 H94        31.0231  -46.6981  -57.4045 H         1 UNK         0.0790 
     95 H95        30.8587  -48.2471  -56.5899 H         1 UNK         0.0790 
     96 H96        28.4104  -48.9150  -56.4960 H         1 UNK         0.3215 
     97 H97        25.7854  -50.8201  -57.9926 H         1 UNK         0.0863 
     98 H98        26.5586  -52.4411  -56.2730 H         1 UNK         0.0808 
     99 H99        28.1019  -51.5997  -56.1433 H         1 UNK         0.0808 
    100 H100       27.6672  -52.4188  -57.6358 H         1 UNK         0.0808 
    101 H101       26.3797  -50.0085  -55.2845 H         1 UNK         0.3118 
    102 H102       24.5820  -46.9510  -55.3808 H         1 UNK         0.0546 
    103 H103       23.7860  -49.5853  -54.0449 H         1 UNK         0.0828 
    104 H104       22.7625  -48.5380  -55.0079 H         1 UNK         0.0828 
    105 H105       23.3670  -47.9756  -53.4582 H         1 UNK         0.0828 
    106 H106       26.3988  -46.8326  -54.1832 H         1 UNK         0.3005 
    107 H107       28.3600  -47.4291  -53.2437 H         1 UNK         0.1257 
    108 H108       26.9696  -48.3779  -50.6794 H         1 UNK         0.0775 
    109 H109       26.9244  -46.7645  -51.3398 H         1 UNK         0.0775 
    110 H110       28.3446  -44.9330  -50.2945 H         1 UNK         0.0840 
    111 H111       30.0430  -45.0880  -49.9321 H         1 UNK         0.0840 
    112 H112       29.1188  -49.6152  -51.6472 H         1 UNK         0.2987 
    113 H113       30.7171  -50.9542  -52.2381 H         1 UNK         0.0785 
    114 H114       28.9801  -52.5176  -53.2023 H         1 UNK         0.0798 
    115 H115       30.6137  -53.1478  -53.3389 H         1 UNK         0.0798 
    116 H116       29.8122  -52.4612  -54.7501 H         1 UNK         0.0798 
    117 H117       32.0146  -51.4286  -54.7241 H         1 UNK         0.3079 
    118 H118       34.2695  -50.7114  -54.7259 H         1 UNK         0.0794 
    119 H119       32.7992  -49.7948  -56.5575 H         1 UNK         0.0786 
    120 H120       34.4515  -49.2266  -56.7153 H         1 UNK         0.0786 
    121 H121       33.2129  -48.1560  -56.0658 H         1 UNK         0.0786 
    122 H122       35.2119  -48.0400  -54.6305 H         1 UNK         0.3032 
    123 H123       36.4458  -47.8839  -51.4088 H         1 UNK         0.1094 
    124 H124       38.2709  -48.6450  -53.7494 H         1 UNK         0.0794 
    125 H125       38.7699  -47.7795  -52.2965 H         1 UNK         0.0794 
    126 H126       38.2072  -49.4392  -52.1848 H         1 UNK         0.0794 
    127 H127       36.2400  -45.9172  -52.3571 H         1 UNK         0.3016 
@<TRIPOS>BOND
     1    1    2 1    
     2    1   67 1    
     3    1   68 1    
     4    1   69 1    
     5    2    3 2    
     6    2    4 am   BACKBONE|DICT|INTERRES
     7    4    5 1    
     8    4   70 1    
     9    5    6 1    
    10    5   65 1    
    11    5   71 1    
    12    6    7 1    
    13    6   72 1    
    14    6   73 1    
    15    7    8 1    
    16    8    9 1    
    17    8   74 1    
    18    8   75 1    
    19    9   10 ar   
    20    9   14 ar   
    21   10   11 ar   
    22   10   76 1    
    23   11   12 ar   
    24   11   48 1    
    25   12   13 ar   
    26   12   77 1    
    27   13   14 ar   
    28   13   15 1    
    29   14   78 1    
    30   15   16 1    
    31   15   79 1    
    32   15   80 1    
    33   16   17 1    
    34   17   18 1    
    35   17   81 1    
    36   17   82 1    
    37   18   19 1    
    38   18   22 1    
    39   18   83 1    
    40   19   20 am   BACKBONE|DICT|INTERRES
    41   19   21 2    
    42   20   84 1    
    43   20   85 1    
    44   22   23 am   BACKBONE|DICT|INTERRES
    45   22   86 1    
    46   23   24 2    
    47   23   25 1    
    48   25   26 1    
    49   25   27 1    
    50   25   87 1    
    51   26   88 1    
    52   26   89 1    
    53   26   90 1    
    54   27   28 am   BACKBONE|DICT|INTERRES
    55   27   91 1    
    56   28   29 2    
    57   28   30 1    
    58   30   31 1    
    59   30   32 1    
    60   30   92 1    
    61   31   93 1    
    62   31   94 1    
    63   31   95 1    
    64   32   33 am   BACKBONE|DICT|INTERRES
    65   32   96 1    
    66   33   34 2    
    67   33   35 1    
    68   35   36 1    
    69   35   37 1    
    70   35   97 1    
    71   36   98 1    
    72   36   99 1    
    73   36  100 1    
    74   37   38 am   BACKBONE|DICT|INTERRES
    75   37  101 1    
    76   38   39 2    
    77   38   40 1    
    78   40   41 1    
    79   40   42 1    
    80   40  102 1    
    81   41  103 1    
    82   41  104 1    
    83   41  105 1    
    84   42   43 am   BACKBONE|DICT|INTERRES
    85   42  106 1    
    86   43   44 2    
    87   43   45 1    
    88   45   46 1    
    89   45   49 1    
    90   45  107 1    
    91   46   47 1    
    92   46  108 1    
    93   46  109 1    
    94   47   48 1    
    95   48  110 1    
    96   48  111 1    
    97   49   50 am   BACKBONE|DICT|INTERRES
    98   49  112 1    
    99   50   51 2    
   100   50   52 1    
   101   52   53 1    
   102   52   54 1    
   103   52  113 1    
   104   53  114 1    
   105   53  115 1    
   106   53  116 1    
   107   54   55 am   BACKBONE|DICT|INTERRES
   108   54  117 1    
   109   55   56 2    
   110   55   57 1    
   111   57   58 1    
   112   57   59 1    
   113   57  118 1    
   114   58  119 1    
   115   58  120 1    
   116   58  121 1    
   117   59   60 am   BACKBONE|DICT|INTERRES
   118   59  122 1    
   119   60   61 2    
   120   60   62 1    
   121   62   63 1    
   122   62   64 1    
   123   62  123 1    
   124   63  124 1    
   125   63  125 1    
   126   63  126 1    
   127   64   65 am   BACKBONE|DICT|INTERRES
   128   64  127 1    
   129   65   66 2    
@<TRIPOS>SUBSTRUCTURE
     1 UNK         1 GROUP             0       ****    0 ROOT    
