@<TRIPOS>MOLECULE
3R134
127   129    1
SMALL
USER_CHARGES


@<TRIPOS>ATOM
      1 CA         29.7145  -44.5869  -49.8489 C.3       0 UNK        -0.1968 
      2 C          31.0504  -45.2073  -49.4647 C.2       0 UNK         0.4852 
      3 O          31.2180  -45.6425  -48.3240 O.2       0 UNK        -0.5359 
      4 N          32.0005  -45.2392  -50.4067 N.am      1 UNK        -0.4300 
      5 CA         33.3183  -45.8634  -50.2605 C.3       1 UNK         0.0863 
      6 C6         34.3756  -45.1493  -51.1465 C.3       11 UNK        -0.0953 
      7 S7         34.0477  -45.3015  -52.9340 S.3       11 UNK        -0.2369 
      8 C8         33.5189  -43.6165  -53.3753 C.3       11 UNK         0.0226 
      9 C9         32.6723  -43.6238  -54.6403 C.ar      11 UNK        -0.0699 
     10 C10        33.1990  -44.1152  -55.8367 C.ar      11 UNK        -0.0804 
     11 C11        32.4142  -44.1676  -56.9901 C.ar      11 UNK        -0.0871 
     12 C12        31.0969  -43.7019  -56.9501 C.ar      11 UNK        -0.1008 
     13 C13        30.5566  -43.1854  -55.7621 C.ar      11 UNK        -0.0735 
     14 C14        31.3559  -43.1542  -54.6142 C.ar      11 UNK        -0.0945 
     15 C15        29.1196  -42.6703  -55.6431 C.3       11 UNK         0.0169 
     16 S16        28.1032  -42.7867  -57.1554 S.3       11 UNK        -0.2669 
     17 C17        26.4256  -42.8627  -56.4368 C.3       11 UNK        -0.0850 
     18 CA         25.9954  -44.3212  -56.0904 C.3       10 UNK         0.0855 
     19 C          24.6129  -44.4192  -55.3732 C.2       10 UNK         0.5543 
     20 N          24.2945  -43.4936  -54.4770 N.am      10 UNK        -0.7343 
     21 O          23.8351  -45.3487  -55.5807 O.2       10 UNK        -0.5027 
     22 N          26.1444  -45.2350  -57.2347 N.am      10 UNK        -0.4495 
     23 C          25.4377  -45.2085  -58.3720 C.2       10 UNK         0.4903 
     24 O          24.5223  -44.4171  -58.6027 O.2       10 UNK        -0.4860 
     25 CA         25.8276  -46.2260  -59.4526 C.3       9 UNK         0.0227 
     26 CB         26.9727  -45.6703  -60.3173 C.3       9 UNK        -0.1964 
     27 N          26.2357  -47.5097  -58.8728 N.am      9 UNK        -0.4231 
     28 C          25.5606  -48.6574  -59.0203 C.2       9 UNK         0.5014 
     29 O          24.5026  -48.7585  -59.6439 O.2       9 UNK        -0.5270 
     30 CA         26.1729  -49.9231  -58.3981 C.3       8 UNK         0.0284 
     31 CB         27.2243  -50.5330  -59.3398 C.3       8 UNK        -0.1977 
     32 N          26.7631  -49.7189  -57.0737 N.am      8 UNK        -0.4342 
     33 C          26.0554  -49.5252  -55.9512 C.2       8 UNK         0.5039 
     34 O          24.8304  -49.4052  -55.9252 O.2       8 UNK        -0.5547 
     35 CA         26.8400  -49.4906  -54.6311 C.3       7 UNK         0.0281 
     36 CB         27.2545  -50.9097  -54.2066 C.3       7 UNK        -0.1963 
     37 N          28.0295  -48.6501  -54.7478 N.am      7 UNK        -0.4444 
     38 C          28.0892  -47.3653  -54.3739 C.2       7 UNK         0.5104 
     39 O          27.1769  -46.7760  -53.7950 O.2       7 UNK        -0.5100 
     40 CA         29.3779  -46.5931  -54.7111 C.3       6 UNK         0.0396 
     41 CB         30.2861  -46.4985  -53.4768 C.3       6 UNK        -0.1801 
     42 N          30.1255  -47.1659  -55.8345 N.am      6 UNK        -0.4747 
     43 C          29.6841  -47.1688  -57.1020 C.2       6 UNK         0.5012 
     44 O          28.6027  -46.6878  -57.4411 O.2       6 UNK        -0.5003 
     45 CA         30.5205  -47.9137  -58.1619 C.3       5 UNK         0.0782 
     46 C46        31.3993  -46.9581  -59.0094 C.3       11 UNK        -0.0868 
     47 S47        33.0184  -46.5448  -58.2688 S.3       11 UNK        -0.2515 
     48 C48        33.0055  -44.7245  -58.2746 C.3       11 UNK         0.0199 
     49 N          31.2694  -49.0522  -57.6209 N.am      5 UNK        -0.4607 
     50 C          30.7234  -50.1188  -57.0228 C.2       4 UNK         0.5031 
     51 O          29.5093  -50.2764  -56.8922 O.2       4 UNK        -0.5119 
     52 CA         31.6876  -51.1570  -56.4256 C.3       4 UNK         0.0263 
     53 CB         31.9922  -52.2554  -57.4559 C.3       4 UNK        -0.1967 
     54 N          32.9460  -50.5901  -55.9224 N.am      4 UNK        -0.4237 
     55 C          33.0356  -49.6731  -54.9484 C.2       3 UNK         0.4908 
     56 O          32.0597  -49.1442  -54.4141 O.2       3 UNK        -0.5102 
     57 CA         34.4523  -49.2405  -54.5388 C.3       3 UNK         0.0241 
     58 CB         34.8682  -47.9816  -55.3168 C.3       3 UNK        -0.1971 
     59 N          34.5400  -48.9786  -53.0989 N.am      3 UNK        -0.4139 
     60 C          34.4824  -49.9290  -52.1533 C.2       2 UNK         0.5016 
     61 O          34.3973  -51.1319  -52.4080 O.2       2 UNK        -0.5319 
     62 CA         34.5663  -49.4940  -50.6753 C.3       2 UNK         0.0286 
     63 CB         35.9008  -49.9462  -50.0575 C.3       2 UNK        -0.1963 
     64 N          34.4132  -48.0521  -50.4541 N.am      2 UNK        -0.4790 
     65 C          33.2489  -47.3910  -50.5077 C.2       1 UNK         0.5024 
     66 O          32.1733  -47.9430  -50.7514 O.2       1 UNK        -0.4888 
     67 H67        29.7512  -44.1123  -50.8293 H         1 UNK         0.0892 
     68 H68        28.9388  -45.3520  -49.8695 H         1 UNK         0.0892 
     69 H69        29.4279  -43.8297  -49.1196 H         1 UNK         0.0892 
     70 H70        31.7912  -44.9073  -51.3359 H         1 UNK         0.3107 
     71 H71        33.6366  -45.7397  -49.2230 H         1 UNK         0.0773 
     72 H72        34.4299  -44.0938  -50.8753 H         1 UNK         0.0680 
     73 H73        35.3750  -45.5406  -50.9508 H         1 UNK         0.0680 
     74 H74        34.3986  -42.9894  -53.5253 H         1 UNK         0.0650 
     75 H75        32.9598  -43.1799  -52.5466 H         1 UNK         0.0650 
     76 H76        34.2161  -44.4823  -55.8627 H         1 UNK         0.1397 
     77 H77        30.5024  -43.7537  -57.8502 H         1 UNK         0.1363 
     78 H78        30.9438  -42.7702  -53.6910 H         1 UNK         0.1355 
     79 H79        28.6276  -43.2254  -54.8435 H         1 UNK         0.0707 
     80 H80        29.1413  -41.6269  -55.3256 H         1 UNK         0.0707 
     81 H81        26.4027  -42.2195  -55.5564 H         1 UNK         0.1034 
     82 H82        25.7262  -42.4206  -57.1482 H         1 UNK         0.1034 
     83 H83        26.7047  -44.6942  -55.3536 H         1 UNK         0.0482 
     84 H84        24.9185  -42.7354  -54.2538 H         1 UNK         0.3460 
     85 H85        23.4089  -43.5656  -54.0006 H         1 UNK         0.3460 
     86 H86        26.9319  -45.8718  -57.1749 H         1 UNK         0.2989 
     87 H87        24.9589  -46.3578  -60.1008 H         1 UNK         0.0559 
     88 H88        27.8706  -45.4751  -59.7298 H         1 UNK         0.0848 
     89 H89        26.6832  -44.7291  -60.7865 H         1 UNK         0.0848 
     90 H90        27.2382  -46.3625  -61.1163 H         1 UNK         0.0848 
     91 H91        27.0869  -47.5009  -58.3201 H         1 UNK         0.3144 
     92 H92        25.3671  -50.6524  -58.2890 H         1 UNK         0.0727 
     93 H93        27.6104  -51.4740  -58.9471 H         1 UNK         0.0790 
     94 H94        28.0702  -49.8635  -59.4929 H         1 UNK         0.0790 
     95 H95        26.7943  -50.7437  -60.3201 H         1 UNK         0.0790 
     96 H96        27.7686  -49.8678  -56.9976 H         1 UNK         0.3215 
     97 H97        26.1766  -49.0935  -53.8592 H         1 UNK         0.0863 
     98 H98        27.7619  -50.9001  -53.2418 H         1 UNK         0.0808 
     99 H99        27.9239  -51.3757  -54.9306 H         1 UNK         0.0808 
    100 H100       26.3816  -51.5562  -54.1068 H         1 UNK         0.0808 
    101 H101       28.8242  -49.0461  -55.2346 H         1 UNK         0.3118 
    102 H102       29.0870  -45.5813  -54.9949 H         1 UNK         0.0546 
    103 H103       29.7936  -45.9468  -52.6762 H         1 UNK         0.0828 
    104 H104       31.2168  -45.9833  -53.7081 H         1 UNK         0.0828 
    105 H105       30.5394  -47.4827  -53.0816 H         1 UNK         0.0828 
    106 H106       30.9924  -47.6406  -55.6087 H         1 UNK         0.3005 
    107 H107       29.7853  -48.3394  -58.8475 H         1 UNK         0.1257 
    108 H108       30.8513  -46.0475  -59.2596 H         1 UNK         0.0775 
    109 H109       31.6099  -47.4339  -59.9684 H         1 UNK         0.0775 
    110 H110       34.0329  -44.3718  -58.3777 H         1 UNK         0.0840 
    111 H111       32.4735  -44.3484  -59.1497 H         1 UNK         0.0840 
    112 H112       32.2754  -48.9788  -57.6673 H         1 UNK         0.2987 
    113 H113       31.1761  -51.6170  -55.5774 H         1 UNK         0.0785 
    114 H114       31.0711  -52.7060  -57.8292 H         1 UNK         0.0798 
    115 H115       32.5871  -53.0573  -57.0182 H         1 UNK         0.0798 
    116 H116       32.5354  -51.8638  -58.3169 H         1 UNK         0.0798 
    117 H117       33.7975  -50.9607  -56.3201 H         1 UNK         0.3079 
    118 H118       35.1539  -50.0430  -54.7764 H         1 UNK         0.0794 
    119 H119       34.1388  -47.1783  -55.2051 H         1 UNK         0.0786 
    120 H120       34.9501  -48.1935  -56.3834 H         1 UNK         0.0786 
    121 H121       35.8370  -47.6060  -54.9870 H         1 UNK         0.0786 
    122 H122       34.5582  -48.0115  -52.8098 H         1 UNK         0.3032 
    123 H123       33.7580  -50.0091  -50.1507 H         1 UNK         0.1094 
    124 H124       36.7528  -49.4645  -50.5390 H         1 UNK         0.0794 
    125 H125       35.9429  -49.7197  -48.9919 H         1 UNK         0.0794 
    126 H126       36.0355  -51.0239  -50.1611 H         1 UNK         0.0794 
    127 H127       35.2584  -47.5366  -50.2525 H         1 UNK         0.3016 
@<TRIPOS>BOND
     1    1    2 1    
     2    1   67 1    
     3    1   68 1    
     4    1   69 1    
     5    2    3 2    
     6    2    4 am   BACKBONE|DICT|INTERRES
     7    4    5 1    
     8    4   70 1    
     9    5    6 1    
    10    5   65 1    
    11    5   71 1    
    12    6    7 1    
    13    6   72 1    
    14    6   73 1    
    15    7    8 1    
    16    8    9 1    
    17    8   74 1    
    18    8   75 1    
    19    9   10 ar   
    20    9   14 ar   
    21   10   11 ar   
    22   10   76 1    
    23   11   12 ar   
    24   11   48 1    
    25   12   13 ar   
    26   12   77 1    
    27   13   14 ar   
    28   13   15 1    
    29   14   78 1    
    30   15   16 1    
    31   15   79 1    
    32   15   80 1    
    33   16   17 1    
    34   17   18 1    
    35   17   81 1    
    36   17   82 1    
    37   18   19 1    
    38   18   22 1    
    39   18   83 1    
    40   19   20 am   BACKBONE|DICT|INTERRES
    41   19   21 2    
    42   20   84 1    
    43   20   85 1    
    44   22   23 am   BACKBONE|DICT|INTERRES
    45   22   86 1    
    46   23   24 2    
    47   23   25 1    
    48   25   26 1    
    49   25   27 1    
    50   25   87 1    
    51   26   88 1    
    52   26   89 1    
    53   26   90 1    
    54   27   28 am   BACKBONE|DICT|INTERRES
    55   27   91 1    
    56   28   29 2    
    57   28   30 1    
    58   30   31 1    
    59   30   32 1    
    60   30   92 1    
    61   31   93 1    
    62   31   94 1    
    63   31   95 1    
    64   32   33 am   BACKBONE|DICT|INTERRES
    65   32   96 1    
    66   33   34 2    
    67   33   35 1    
    68   35   36 1    
    69   35   37 1    
    70   35   97 1    
    71   36   98 1    
    72   36   99 1    
    73   36  100 1    
    74   37   38 am   BACKBONE|DICT|INTERRES
    75   37  101 1    
    76   38   39 2    
    77   38   40 1    
    78   40   41 1    
    79   40   42 1    
    80   40  102 1    
    81   41  103 1    
    82   41  104 1    
    83   41  105 1    
    84   42   43 am   BACKBONE|DICT|INTERRES
    85   42  106 1    
    86   43   44 2    
    87   43   45 1    
    88   45   46 1    
    89   45   49 1    
    90   45  107 1    
    91   46   47 1    
    92   46  108 1    
    93   46  109 1    
    94   47   48 1    
    95   48  110 1    
    96   48  111 1    
    97   49   50 am   BACKBONE|DICT|INTERRES
    98   49  112 1    
    99   50   51 2    
   100   50   52 1    
   101   52   53 1    
   102   52   54 1    
   103   52  113 1    
   104   53  114 1    
   105   53  115 1    
   106   53  116 1    
   107   54   55 am   BACKBONE|DICT|INTERRES
   108   54  117 1    
   109   55   56 2    
   110   55   57 1    
   111   57   58 1    
   112   57   59 1    
   113   57  118 1    
   114   58  119 1    
   115   58  120 1    
   116   58  121 1    
   117   59   60 am   BACKBONE|DICT|INTERRES
   118   59  122 1    
   119   60   61 2    
   120   60   62 1    
   121   62   63 1    
   122   62   64 1    
   123   62  123 1    
   124   63  124 1    
   125   63  125 1    
   126   63  126 1    
   127   64   65 am   BACKBONE|DICT|INTERRES
   128   64  127 1    
   129   65   66 2    
@<TRIPOS>SUBSTRUCTURE
     1 UNK         1 GROUP             0       ****    0 ROOT    
