@<TRIPOS>MOLECULE
3R134
127   129    1
SMALL
USER_CHARGES


@<TRIPOS>ATOM
      1 CA         32.9356  -46.4334  -50.2565 C.3       0 UNK        -0.1968 
      2 C          34.3093  -46.0289  -50.7674 C.2       0 UNK         0.4852 
      3 O          35.0282  -45.2954  -50.0866 O.2       0 UNK        -0.5359 
      4 N          34.6713  -46.5028  -51.9612 N.am      1 UNK        -0.4300 
      5 CA         35.9333  -46.2166  -52.6408 C.3       1 UNK         0.0863 
      6 C6         35.8965  -44.8880  -53.4497 C.3       11 UNK        -0.0953 
      7 S7         34.4589  -44.7280  -54.5762 S.3       11 UNK        -0.2369 
      8 C8         33.8198  -43.0731  -54.1605 C.3       11 UNK         0.0226 
      9 C9         32.3203  -43.0894  -53.9042 C.ar      11 UNK        -0.0699 
     10 C10        31.8270  -43.1577  -52.5971 C.ar      11 UNK        -0.0804 
     11 C11        30.4504  -43.0983  -52.3536 C.ar      11 UNK        -0.0871 
     12 C12        29.5657  -42.9823  -53.4296 C.ar      11 UNK        -0.1008 
     13 C13        30.0470  -42.9349  -54.7409 C.ar      11 UNK        -0.0735 
     14 C14        31.4247  -42.9883  -54.9727 C.ar      11 UNK        -0.0945 
     15 C15        29.0802  -42.7984  -55.9051 C.3       11 UNK         0.0169 
     16 S16        28.5044  -44.4224  -56.4806 S.3       11 UNK        -0.2669 
     17 C17        27.4860  -43.8978  -57.9012 C.3       11 UNK        -0.0850 
     18 CA         26.6084  -45.0421  -58.4869 C.3       10 UNK         0.0855 
     19 C          25.6272  -44.5397  -59.5907 C.2       10 UNK         0.5543 
     20 N          25.3458  -45.3076  -60.6379 N.am      10 UNK        -0.7343 
     21 O          25.0834  -43.4429  -59.4842 O.2       10 UNK        -0.5027 
     22 N          27.3720  -46.2434  -58.8615 N.am      10 UNK        -0.4495 
     23 C          28.3484  -46.3179  -59.7785 C.2       10 UNK         0.4903 
     24 O          28.8099  -45.3479  -60.3801 O.2       10 UNK        -0.4860 
     25 CA         28.8885  -47.7229  -60.1128 C.3       9 UNK         0.0227 
     26 CB         30.1490  -48.0152  -59.2826 C.3       9 UNK        -0.1964 
     27 N          27.9149  -48.7984  -59.8991 N.am      9 UNK        -0.4231 
     28 C          26.7135  -48.8977  -60.4884 C.2       9 UNK         0.5014 
     29 O          26.3190  -48.1380  -61.3744 O.2       9 UNK        -0.5270 
     30 CA         25.7666  -49.9930  -59.9609 C.3       8 UNK         0.0284 
     31 CB         25.8270  -51.2347  -60.8654 C.3       8 UNK        -0.1977 
     32 N          26.0100  -50.3936  -58.5670 N.am      8 UNK        -0.4342 
     33 C          25.9797  -49.5764  -57.5046 C.2       8 UNK         0.5039 
     34 O          25.7757  -48.3605  -57.5742 O.2       8 UNK        -0.5547 
     35 CA         26.2759  -50.2175  -56.1455 C.3       7 UNK         0.0281 
     36 CB         27.7693  -50.5742  -56.0167 C.3       7 UNK        -0.1963 
     37 N          25.8980  -49.2713  -55.1007 N.am      7 UNK        -0.4444 
     38 C          25.5226  -49.5868  -53.8594 C.2       7 UNK         0.5104 
     39 O          25.5105  -50.7370  -53.4165 O.2       7 UNK        -0.5100 
     40 CA         25.1418  -48.4067  -52.9544 C.3       6 UNK         0.0396 
     41 CB         24.3072  -48.8428  -51.7359 C.3       6 UNK        -0.1801 
     42 N          26.3745  -47.7813  -52.4865 N.am      6 UNK        -0.4747 
     43 C          26.8497  -46.5916  -52.8790 C.2       6 UNK         0.5012 
     44 O          26.2449  -45.8254  -53.6290 O.2       6 UNK        -0.5003 
     45 CA         28.2401  -46.1929  -52.3374 C.3       5 UNK         0.0782 
     46 C46        28.0833  -45.2833  -51.0925 C.3       11 UNK        -0.0868 
     47 S47        29.6719  -44.8187  -50.3220 S.3       11 UNK        -0.2515 
     48 C48        29.9245  -43.1217  -50.9260 C.3       11 UNK         0.0199 
     49 N          29.0953  -47.3588  -52.0729 N.am      5 UNK        -0.4607 
     50 C          29.5861  -48.1605  -53.0250 C.2       4 UNK         0.5031 
     51 O          29.3377  -48.0290  -54.2247 O.2       4 UNK        -0.5119 
     52 CA         30.4691  -49.3261  -52.5468 C.3       4 UNK         0.0263 
     53 CB         29.5992  -50.5024  -52.0724 C.3       4 UNK        -0.1967 
     54 N          31.3545  -49.7835  -53.6194 N.am      4 UNK        -0.4237 
     55 C          32.4149  -49.0923  -54.0522 C.2       3 UNK         0.4908 
     56 O          32.8548  -48.0843  -53.4875 O.2       3 UNK        -0.5102 
     57 CA         33.0803  -49.6032  -55.3382 C.3       3 UNK         0.0241 
     58 CB         32.1882  -49.3420  -56.5649 C.3       3 UNK        -0.1971 
     59 N          34.3362  -48.8845  -55.5023 N.am      3 UNK        -0.4139 
     60 C          35.5235  -49.4069  -55.8225 C.2       2 UNK         0.5016 
     61 O          35.6903  -50.5696  -56.1931 O.2       2 UNK        -0.5319 
     62 CA         36.7399  -48.4699  -55.6810 C.3       2 UNK         0.0286 
     63 CB         37.1529  -47.9108  -57.0520 C.3       2 UNK        -0.1963 
     64 N          36.4992  -47.3514  -54.7589 N.am      2 UNK        -0.4790 
     65 C          36.3381  -47.4731  -53.4329 C.2       1 UNK         0.5024 
     66 O          36.4795  -48.5400  -52.8320 O.2       1 UNK        -0.4888 
     67 H67        32.5064  -45.6335  -49.6542 H         1 UNK         0.0892 
     68 H68        32.2507  -46.6383  -51.0797 H         1 UNK         0.0892 
     69 H69        33.0102  -47.3262  -49.6366 H         1 UNK         0.0892 
     70 H70        34.0338  -47.1102  -52.4768 H         1 UNK         0.3107 
     71 H71        36.7133  -46.1110  -51.8836 H         1 UNK         0.0773 
     72 H72        35.8905  -44.0651  -52.7352 H         1 UNK         0.0680 
     73 H73        36.8151  -44.7497  -54.0225 H         1 UNK         0.0680 
     74 H74        34.3300  -42.6569  -53.2919 H         1 UNK         0.0650 
     75 H75        34.0454  -42.3970  -54.9864 H         1 UNK         0.0650 
     76 H76        32.5162  -43.2379  -51.7673 H         1 UNK         0.1397 
     77 H77        28.5005  -42.9301  -53.2493 H         1 UNK         0.1363 
     78 H78        31.8020  -42.9395  -55.9852 H         1 UNK         0.1355 
     79 H79        29.5601  -42.2706  -56.7310 H         1 UNK         0.0707 
     80 H80        28.2221  -42.1931  -55.6084 H         1 UNK         0.0707 
     81 H81        28.1383  -43.4785  -58.6684 H         1 UNK         0.1034 
     82 H82        26.8498  -43.0761  -57.5670 H         1 UNK         0.1034 
     83 H83        25.9532  -45.3770  -57.6819 H         1 UNK         0.0482 
     84 H84        24.7012  -44.9702  -61.3348 H         1 UNK         0.3460 
     85 H85        25.7753  -46.2185  -60.7494 H         1 UNK         0.3460 
     86 H86        27.0252  -47.1015  -58.4430 H         1 UNK         0.2989 
     87 H87        29.1601  -47.7301  -61.1702 H         1 UNK         0.0559 
     88 H88        29.9292  -48.0336  -58.2141 H         1 UNK         0.0848 
     89 H89        30.9086  -47.2488  -59.4434 H         1 UNK         0.0848 
     90 H90        30.5951  -48.9723  -59.5533 H         1 UNK         0.0848 
     91 H91        28.1405  -49.4755  -59.1860 H         1 UNK         0.3144 
     92 H92        24.7541  -49.5865  -60.0068 H         1 UNK         0.0727 
     93 H93        26.8088  -51.7091  -60.8362 H         1 UNK         0.0790 
     94 H94        25.6240  -50.9709  -61.9045 H         1 UNK         0.0790 
     95 H95        25.0845  -51.9773  -60.5726 H         1 UNK         0.0790 
     96 H96        26.1920  -51.3755  -58.4118 H         1 UNK         0.3215 
     97 H97        25.6689  -51.1210  -56.0533 H         1 UNK         0.0863 
     98 H98        27.9869  -51.0171  -55.0457 H         1 UNK         0.0808 
     99 H99        28.4032  -49.6939  -56.1310 H         1 UNK         0.0808 
    100 H100       28.0737  -51.2982  -56.7730 H         1 UNK         0.0808 
    101 H101       25.8599  -48.3075  -55.4133 H         1 UNK         0.3118 
    102 H102       24.5429  -47.7069  -53.5412 H         1 UNK         0.0546 
    103 H103       23.3908  -49.3432  -52.0511 H         1 UNK         0.0828 
    104 H104       24.0157  -47.9846  -51.1304 H         1 UNK         0.0828 
    105 H105       24.8526  -49.5346  -51.0927 H         1 UNK         0.0828 
    106 H106       26.9662  -48.3536  -51.9012 H         1 UNK         0.3005 
    107 H107       28.7252  -45.6144  -53.1270 H         1 UNK         0.1257 
    108 H108       27.4912  -45.7889  -50.3271 H         1 UNK         0.0775 
    109 H109       27.5279  -44.3791  -51.3483 H         1 UNK         0.0775 
    110 H110       28.9970  -42.5528  -50.8450 H         1 UNK         0.0840 
    111 H111       30.6374  -42.6228  -50.2678 H         1 UNK         0.0840 
    112 H112       29.3495  -47.5126  -51.1079 H         1 UNK         0.2987 
    113 H113       31.0827  -48.9824  -51.7110 H         1 UNK         0.0785 
    114 H114       30.2122  -51.3399  -51.7387 H         1 UNK         0.0798 
    115 H115       28.9385  -50.8633  -52.8610 H         1 UNK         0.0798 
    116 H116       28.9694  -50.2111  -51.2310 H         1 UNK         0.0798 
    117 H117       31.0382  -50.5771  -54.1567 H         1 UNK         0.3079 
    118 H118       33.2661  -50.6741  -55.2308 H         1 UNK         0.0794 
    119 H119       31.2423  -49.8798  -56.4911 H         1 UNK         0.0786 
    120 H120       32.6745  -49.6677  -57.4846 H         1 UNK         0.0786 
    121 H121       31.9528  -48.2817  -56.6686 H         1 UNK         0.0786 
    122 H122       34.3159  -47.9387  -55.1433 H         1 UNK         0.3032 
    123 H123       37.5654  -49.0673  -55.2869 H         1 UNK         0.1094 
    124 H124       36.3672  -47.2942  -57.4906 H         1 UNK         0.0794 
    125 H125       38.0557  -47.3041  -56.9781 H         1 UNK         0.0794 
    126 H126       37.3640  -48.7182  -57.7548 H         1 UNK         0.0794 
    127 H127       36.3466  -46.4416  -55.1738 H         1 UNK         0.3016 
@<TRIPOS>BOND
     1    1    2 1    
     2    1   67 1    
     3    1   68 1    
     4    1   69 1    
     5    2    3 2    
     6    2    4 am   BACKBONE|DICT|INTERRES
     7    4    5 1    
     8    4   70 1    
     9    5    6 1    
    10    5   65 1    
    11    5   71 1    
    12    6    7 1    
    13    6   72 1    
    14    6   73 1    
    15    7    8 1    
    16    8    9 1    
    17    8   74 1    
    18    8   75 1    
    19    9   10 ar   
    20    9   14 ar   
    21   10   11 ar   
    22   10   76 1    
    23   11   12 ar   
    24   11   48 1    
    25   12   13 ar   
    26   12   77 1    
    27   13   14 ar   
    28   13   15 1    
    29   14   78 1    
    30   15   16 1    
    31   15   79 1    
    32   15   80 1    
    33   16   17 1    
    34   17   18 1    
    35   17   81 1    
    36   17   82 1    
    37   18   19 1    
    38   18   22 1    
    39   18   83 1    
    40   19   20 am   BACKBONE|DICT|INTERRES
    41   19   21 2    
    42   20   84 1    
    43   20   85 1    
    44   22   23 am   BACKBONE|DICT|INTERRES
    45   22   86 1    
    46   23   24 2    
    47   23   25 1    
    48   25   26 1    
    49   25   27 1    
    50   25   87 1    
    51   26   88 1    
    52   26   89 1    
    53   26   90 1    
    54   27   28 am   BACKBONE|DICT|INTERRES
    55   27   91 1    
    56   28   29 2    
    57   28   30 1    
    58   30   31 1    
    59   30   32 1    
    60   30   92 1    
    61   31   93 1    
    62   31   94 1    
    63   31   95 1    
    64   32   33 am   BACKBONE|DICT|INTERRES
    65   32   96 1    
    66   33   34 2    
    67   33   35 1    
    68   35   36 1    
    69   35   37 1    
    70   35   97 1    
    71   36   98 1    
    72   36   99 1    
    73   36  100 1    
    74   37   38 am   BACKBONE|DICT|INTERRES
    75   37  101 1    
    76   38   39 2    
    77   38   40 1    
    78   40   41 1    
    79   40   42 1    
    80   40  102 1    
    81   41  103 1    
    82   41  104 1    
    83   41  105 1    
    84   42   43 am   BACKBONE|DICT|INTERRES
    85   42  106 1    
    86   43   44 2    
    87   43   45 1    
    88   45   46 1    
    89   45   49 1    
    90   45  107 1    
    91   46   47 1    
    92   46  108 1    
    93   46  109 1    
    94   47   48 1    
    95   48  110 1    
    96   48  111 1    
    97   49   50 am   BACKBONE|DICT|INTERRES
    98   49  112 1    
    99   50   51 2    
   100   50   52 1    
   101   52   53 1    
   102   52   54 1    
   103   52  113 1    
   104   53  114 1    
   105   53  115 1    
   106   53  116 1    
   107   54   55 am   BACKBONE|DICT|INTERRES
   108   54  117 1    
   109   55   56 2    
   110   55   57 1    
   111   57   58 1    
   112   57   59 1    
   113   57  118 1    
   114   58  119 1    
   115   58  120 1    
   116   58  121 1    
   117   59   60 am   BACKBONE|DICT|INTERRES
   118   59  122 1    
   119   60   61 2    
   120   60   62 1    
   121   62   63 1    
   122   62   64 1    
   123   62  123 1    
   124   63  124 1    
   125   63  125 1    
   126   63  126 1    
   127   64   65 am   BACKBONE|DICT|INTERRES
   128   64  127 1    
   129   65   66 2    
@<TRIPOS>SUBSTRUCTURE
     1 UNK         1 GROUP             0       ****    0 ROOT    
