@<TRIPOS>MOLECULE
3R134
127   129    1
SMALL
USER_CHARGES


@<TRIPOS>ATOM
      1 CA         30.0179  -42.7396  -49.6617 C.3       0 UNK        -0.1968 
      2 C          31.2936  -43.5439  -49.4606 C.2       0 UNK         0.4852 
      3 O          31.6683  -43.8192  -48.3192 O.2       0 UNK        -0.5359 
      4 N          31.9643  -43.9137  -50.5586 N.am      1 UNK        -0.4300 
      5 CA         33.1641  -44.7558  -50.5564 C.3       1 UNK         0.0863 
      6 C6         34.0876  -44.4445  -51.7631 C.3       11 UNK        -0.0953 
      7 S7         33.3739  -44.8972  -53.3803 S.3       11 UNK        -0.2369 
      8 C8         33.4695  -43.3160  -54.2633 C.3       11 UNK         0.0226 
      9 C9         32.7938  -43.4270  -55.6177 C.ar      11 UNK        -0.0699 
     10 C10        33.3931  -44.1612  -56.6425 C.ar      11 UNK        -0.0804 
     11 C11        32.7690  -44.2837  -57.8858 C.ar      11 UNK        -0.0871 
     12 C12        31.5282  -43.6682  -58.0980 C.ar      11 UNK        -0.1008 
     13 C13        30.9231  -42.9200  -57.0802 C.ar      11 UNK        -0.0735 
     14 C14        31.5691  -42.7980  -55.8467 C.ar      11 UNK        -0.0945 
     15 C15        29.6024  -42.1966  -57.3236 C.3       11 UNK         0.0169 
     16 S16        28.1425  -43.1752  -56.8326 S.3       11 UNK        -0.2669 
     17 C17        28.2541  -43.1740  -55.0068 C.3       11 UNK        -0.0850 
     18 CA         28.6515  -44.5772  -54.4676 C.3       10 UNK         0.0855 
     19 C          29.4757  -44.5590  -53.1477 C.2       10 UNK         0.5543 
     20 N          29.3918  -45.5951  -52.3206 N.am      10 UNK        -0.7343 
     21 O          30.2219  -43.6221  -52.8782 O.2       10 UNK        -0.5027 
     22 N          27.4825  -45.4692  -54.3732 N.am      10 UNK        -0.4495 
     23 C          27.1795  -46.4339  -55.2426 C.2       10 UNK         0.4903 
     24 O          27.8082  -46.6530  -56.2779 O.2       10 UNK        -0.4860 
     25 CA         25.9871  -47.3260  -54.8868 C.3       9 UNK         0.0227 
     26 CB         24.6860  -46.7976  -55.5111 C.3       9 UNK        -0.1964 
     27 N          26.2814  -48.6653  -55.3846 N.am      9 UNK        -0.4231 
     28 C          25.9555  -49.8164  -54.7867 C.2       9 UNK         0.5014 
     29 O          25.2325  -49.8911  -53.7911 O.2       9 UNK        -0.5270 
     30 CA         26.5884  -51.0893  -55.3830 C.3       8 UNK         0.0284 
     31 CB         25.9733  -52.3981  -54.8393 C.3       8 UNK        -0.1977 
     32 N          26.6242  -51.0662  -56.8504 N.am      8 UNK        -0.4342 
     33 C          25.5753  -51.1276  -57.6845 C.2       8 UNK         0.5039 
     34 O          24.4055  -51.2680  -57.3217 O.2       8 UNK        -0.5547 
     35 CA         25.9091  -50.9880  -59.1818 C.3       7 UNK         0.0281 
     36 CB         24.6772  -51.1609  -60.0966 C.3       7 UNK        -0.1963 
     37 N          26.5998  -49.7265  -59.4740 N.am      7 UNK        -0.4444 
     38 C          26.1602  -48.4788  -59.2541 C.2       7 UNK         0.5104 
     39 O          25.0580  -48.2081  -58.7774 O.2       7 UNK        -0.5100 
     40 CA         27.1309  -47.3466  -59.6391 C.3       6 UNK         0.0396 
     41 CB         26.5671  -45.9433  -59.3451 C.3       6 UNK        -0.1801 
     42 N          28.4354  -47.4874  -58.9846 N.am      6 UNK        -0.4747 
     43 C          29.4245  -48.2860  -59.4088 C.2       6 UNK         0.5012 
     44 O          29.2931  -49.0811  -60.3413 O.2       6 UNK        -0.5003 
     45 CA         30.7964  -48.1642  -58.7167 C.3       5 UNK         0.0782 
     46 C46        31.6338  -47.1109  -59.4815 C.3       11 UNK        -0.0868 
     47 S47        33.3019  -46.8539  -58.7959 S.3       11 UNK        -0.2515 
     48 C48        33.4704  -45.0519  -58.9972 C.3       11 UNK         0.0199 
     49 N          30.7453  -47.8918  -57.2754 N.am      5 UNK        -0.4607 
     50 C          30.1582  -48.6600  -56.3487 C.2       4 UNK         0.5031 
     51 O          29.4436  -49.6319  -56.6093 O.2       4 UNK        -0.5119 
     52 CA         30.4446  -48.2696  -54.8816 C.3       4 UNK         0.0263 
     53 CB         29.7337  -49.1802  -53.8614 C.3       4 UNK        -0.1967 
     54 N          31.8741  -48.2000  -54.5523 N.am      4 UNK        -0.4237 
     55 C          32.8057  -49.1456  -54.7590 C.2       3 UNK         0.4908 
     56 O          32.6178  -50.1979  -55.3703 O.2       3 UNK        -0.5102 
     57 CA         34.1856  -48.8844  -54.1342 C.3       3 UNK         0.0241 
     58 CB         34.9976  -47.8949  -54.9875 C.3       3 UNK        -0.1971 
     59 N          34.1015  -48.4180  -52.7432 N.am      3 UNK        -0.4139 
     60 C          33.6731  -49.1728  -51.7165 C.2       2 UNK         0.5016 
     61 O          33.2942  -50.3380  -51.8415 O.2       2 UNK        -0.5319 
     62 CA         33.6952  -48.5581  -50.3026 C.3       2 UNK         0.0286 
     63 CB         34.8489  -49.1548  -49.4786 C.3       2 UNK        -0.1963 
     64 N          33.8177  -47.0982  -50.2958 N.am      2 UNK        -0.4790 
     65 C          32.7948  -46.2538  -50.4819 C.2       1 UNK         0.5024 
     66 O          31.6266  -46.6212  -50.6355 O.2       1 UNK        -0.4888 
     67 H67        30.0292  -42.2017  -50.6095 H         1 UNK         0.0892 
     68 H68        29.1520  -43.4010  -49.6522 H         1 UNK         0.0892 
     69 H69        29.8993  -42.0069  -48.8639 H         1 UNK         0.0892 
     70 H70        31.5594  -43.7254  -51.4729 H         1 UNK         0.3107 
     71 H71        33.7339  -44.5294  -49.6524 H         1 UNK         0.0773 
     72 H72        35.0414  -44.9643  -51.6605 H         1 UNK         0.0680 
     73 H73        34.3412  -43.3833  -51.7587 H         1 UNK         0.0680 
     74 H74        32.9992  -42.5374  -53.6603 H         1 UNK         0.0650 
     75 H75        34.5145  -43.0307  -54.3919 H         1 UNK         0.0650 
     76 H76        34.3470  -44.6408  -56.4694 H         1 UNK         0.1397 
     77 H77        31.0420  -43.7514  -59.0603 H         1 UNK         0.1363 
     78 H78        31.1231  -42.2107  -55.0575 H         1 UNK         0.1355 
     79 H79        29.5108  -41.9517  -58.3828 H         1 UNK         0.0707 
     80 H80        29.5934  -41.2415  -56.7961 H         1 UNK         0.0707 
     81 H81        27.2912  -42.8671  -54.5958 H         1 UNK         0.1034 
     82 H82        28.9503  -42.3962  -54.6971 H         1 UNK         0.1034 
     83 H83        29.3670  -45.0018  -55.1744 H         1 UNK         0.0482 
     84 H84        28.7944  -46.3748  -52.5363 H         1 UNK         0.3460 
     85 H85        29.9974  -45.6464  -51.5120 H         1 UNK         0.3460 
     86 H86        26.9166  -45.3555  -53.5437 H         1 UNK         0.2989 
     87 H87        25.8831  -47.3540  -53.8000 H         1 UNK         0.0559 
     88 H88        23.8435  -47.4504  -55.2826 H         1 UNK         0.0848 
     89 H89        24.7619  -46.7196  -56.5956 H         1 UNK         0.0848 
     90 H90        24.4435  -45.8053  -55.1293 H         1 UNK         0.0848 
     91 H91        26.9137  -48.6830  -56.1758 H         1 UNK         0.3144 
     92 H92        27.6316  -51.0785  -55.0653 H         1 UNK         0.0727 
     93 H93        26.4467  -53.2741  -55.2826 H         1 UNK         0.0790 
     94 H94        24.9024  -52.4588  -55.0342 H         1 UNK         0.0790 
     95 H95        26.1075  -52.4700  -53.7593 H         1 UNK         0.0790 
     96 H96        27.5431  -50.9073  -57.2475 H         1 UNK         0.3215 
     97 H97        26.6087  -51.7908  -59.4205 H         1 UNK         0.0863 
     98 H98        24.9527  -51.0982  -61.1492 H         1 UNK         0.0808 
     99 H99        23.9164  -50.4038  -59.9034 H         1 UNK         0.0808 
    100 H100       24.2113  -52.1347  -59.9409 H         1 UNK         0.0808 
    101 H101       27.5362  -49.8061  -59.8619 H         1 UNK         0.3118 
    102 H102       27.2756  -47.4109  -60.7197 H         1 UNK         0.0546 
    103 H103       26.3618  -45.7995  -58.2847 H         1 UNK         0.0828 
    104 H104       25.6319  -45.7781  -59.8812 H         1 UNK         0.0828 
    105 H105       27.2609  -45.1626  -59.6569 H         1 UNK         0.0828 
    106 H106       28.5642  -46.9556  -58.1283 H         1 UNK         0.3005 
    107 H107       31.2878  -49.1334  -58.8275 H         1 UNK         0.1257 
    108 H108       31.7537  -47.4045  -60.5265 H         1 UNK         0.0775 
    109 H109       31.1041  -46.1570  -59.4973 H         1 UNK         0.0775 
    110 H110       34.5319  -44.7996  -58.9933 H         1 UNK         0.0840 
    111 H111       33.0960  -44.7499  -59.9767 H         1 UNK         0.0840 
    112 H112       31.3133  -47.1159  -56.9669 H         1 UNK         0.2987 
    113 H113       30.0573  -47.2607  -54.7490 H         1 UNK         0.0785 
    114 H114       29.9714  -48.8892  -52.8379 H         1 UNK         0.0798 
    115 H115       30.0197  -50.2255  -53.9855 H         1 UNK         0.0798 
    116 H116       28.6535  -49.1162  -53.9683 H         1 UNK         0.0798 
    117 H117       32.1635  -47.3706  -54.0518 H         1 UNK         0.3079 
    118 H118       34.7263  -49.8336  -54.1260 H         1 UNK         0.0794 
    119 H119       35.1419  -48.2848  -55.9962 H         1 UNK         0.0786 
    120 H120       35.9869  -47.7203  -54.5643 H         1 UNK         0.0786 
    121 H121       34.4991  -46.9318  -55.0888 H         1 UNK         0.0786 
    122 H122       34.3896  -47.4690  -52.5557 H         1 UNK         0.3032 
    123 H123       32.7551  -48.8356  -49.8193 H         1 UNK         0.1094 
    124 H124       35.8214  -48.9170  -49.9115 H         1 UNK         0.0794 
    125 H125       34.8369  -48.7851  -48.4530 H         1 UNK         0.0794 
    126 H126       34.7723  -50.2420  -49.4286 H         1 UNK         0.0794 
    127 H127       34.7473  -46.7232  -50.1681 H         1 UNK         0.3016 
@<TRIPOS>BOND
     1    1    2 1    
     2    1   67 1    
     3    1   68 1    
     4    1   69 1    
     5    2    3 2    
     6    2    4 am   BACKBONE|DICT|INTERRES
     7    4    5 1    
     8    4   70 1    
     9    5    6 1    
    10    5   65 1    
    11    5   71 1    
    12    6    7 1    
    13    6   72 1    
    14    6   73 1    
    15    7    8 1    
    16    8    9 1    
    17    8   74 1    
    18    8   75 1    
    19    9   10 ar   
    20    9   14 ar   
    21   10   11 ar   
    22   10   76 1    
    23   11   12 ar   
    24   11   48 1    
    25   12   13 ar   
    26   12   77 1    
    27   13   14 ar   
    28   13   15 1    
    29   14   78 1    
    30   15   16 1    
    31   15   79 1    
    32   15   80 1    
    33   16   17 1    
    34   17   18 1    
    35   17   81 1    
    36   17   82 1    
    37   18   19 1    
    38   18   22 1    
    39   18   83 1    
    40   19   20 am   BACKBONE|DICT|INTERRES
    41   19   21 2    
    42   20   84 1    
    43   20   85 1    
    44   22   23 am   BACKBONE|DICT|INTERRES
    45   22   86 1    
    46   23   24 2    
    47   23   25 1    
    48   25   26 1    
    49   25   27 1    
    50   25   87 1    
    51   26   88 1    
    52   26   89 1    
    53   26   90 1    
    54   27   28 am   BACKBONE|DICT|INTERRES
    55   27   91 1    
    56   28   29 2    
    57   28   30 1    
    58   30   31 1    
    59   30   32 1    
    60   30   92 1    
    61   31   93 1    
    62   31   94 1    
    63   31   95 1    
    64   32   33 am   BACKBONE|DICT|INTERRES
    65   32   96 1    
    66   33   34 2    
    67   33   35 1    
    68   35   36 1    
    69   35   37 1    
    70   35   97 1    
    71   36   98 1    
    72   36   99 1    
    73   36  100 1    
    74   37   38 am   BACKBONE|DICT|INTERRES
    75   37  101 1    
    76   38   39 2    
    77   38   40 1    
    78   40   41 1    
    79   40   42 1    
    80   40  102 1    
    81   41  103 1    
    82   41  104 1    
    83   41  105 1    
    84   42   43 am   BACKBONE|DICT|INTERRES
    85   42  106 1    
    86   43   44 2    
    87   43   45 1    
    88   45   46 1    
    89   45   49 1    
    90   45  107 1    
    91   46   47 1    
    92   46  108 1    
    93   46  109 1    
    94   47   48 1    
    95   48  110 1    
    96   48  111 1    
    97   49   50 am   BACKBONE|DICT|INTERRES
    98   49  112 1    
    99   50   51 2    
   100   50   52 1    
   101   52   53 1    
   102   52   54 1    
   103   52  113 1    
   104   53  114 1    
   105   53  115 1    
   106   53  116 1    
   107   54   55 am   BACKBONE|DICT|INTERRES
   108   54  117 1    
   109   55   56 2    
   110   55   57 1    
   111   57   58 1    
   112   57   59 1    
   113   57  118 1    
   114   58  119 1    
   115   58  120 1    
   116   58  121 1    
   117   59   60 am   BACKBONE|DICT|INTERRES
   118   59  122 1    
   119   60   61 2    
   120   60   62 1    
   121   62   63 1    
   122   62   64 1    
   123   62  123 1    
   124   63  124 1    
   125   63  125 1    
   126   63  126 1    
   127   64   65 am   BACKBONE|DICT|INTERRES
   128   64  127 1    
   129   65   66 2    
@<TRIPOS>SUBSTRUCTURE
     1 UNK         1 GROUP             0       ****    0 ROOT    
