@<TRIPOS>MOLECULE
3R134
127   129    1
SMALL
USER_CHARGES


@<TRIPOS>ATOM
      1 CA         31.5887  -46.4972  -49.4530 C.3       0 UNK        -0.1968 
      2 C          32.3631  -46.6476  -50.7535 C.2       0 UNK         0.4852 
      3 O          31.9137  -47.3674  -51.6489 O.2       0 UNK        -0.5359 
      4 N          33.5152  -45.9655  -50.8632 N.am      1 UNK        -0.4300 
      5 CA         34.4580  -46.0396  -51.9894 C.3       1 UNK         0.0863 
      6 C6         33.7679  -45.7198  -53.3467 C.3       11 UNK        -0.0953 
      7 S7         34.8506  -44.9361  -54.5906 S.3       11 UNK        -0.2369 
      8 C8         34.2063  -43.2296  -54.6799 C.3       11 UNK         0.0226 
      9 C9         32.7048  -43.1796  -54.9377 C.ar      11 UNK        -0.0699 
     10 C10        31.8346  -42.8230  -53.9032 C.ar      11 UNK        -0.0804 
     11 C11        30.4513  -42.8359  -54.0965 C.ar      11 UNK        -0.0871 
     12 C12        29.9402  -43.1747  -55.3527 C.ar      11 UNK        -0.1008 
     13 C13        30.8002  -43.5186  -56.4017 C.ar      11 UNK        -0.0735 
     14 C14        32.1828  -43.5179  -56.1896 C.ar      11 UNK        -0.0945 
     15 C15        30.2259  -43.9154  -57.7519 C.3       11 UNK         0.0169 
     16 S16        29.4472  -42.4903  -58.5749 S.3       11 UNK        -0.2669 
     17 C17        28.5729  -43.2918  -59.9621 C.3       11 UNK        -0.0850 
     18 CA         27.0797  -43.5670  -59.6362 C.3       10 UNK         0.0855 
     19 C          26.2785  -43.9471  -60.9175 C.2       10 UNK         0.5543 
     20 N          25.6315  -45.1046  -60.9950 N.am      10 UNK        -0.7343 
     21 O          26.2366  -43.1652  -61.8640 O.2       10 UNK        -0.5027 
     22 N          26.9509  -44.5343  -58.5376 N.am      10 UNK        -0.4495 
     23 C          25.9080  -44.6460  -57.7076 C.2       10 UNK         0.4903 
     24 O          24.9462  -43.8764  -57.7054 O.2       10 UNK        -0.4860 
     25 CA         25.9592  -45.8326  -56.7212 C.3       9 UNK         0.0227 
     26 CB         24.5634  -46.2458  -56.2106 C.3       9 UNK        -0.1964 
     27 N          26.6837  -47.0003  -57.2483 N.am      9 UNK        -0.4231 
     28 C          26.4027  -47.6861  -58.3684 C.2       9 UNK         0.5014 
     29 O          25.4687  -47.4170  -59.1245 O.2       9 UNK        -0.5270 
     30 CA         27.3423  -48.8412  -58.7316 C.3       8 UNK         0.0284 
     31 CB         28.6018  -48.3076  -59.4374 C.3       8 UNK        -0.1977 
     32 N          27.7282  -49.6139  -57.5479 N.am      8 UNK        -0.4342 
     33 C          27.2970  -50.8544  -57.2852 C.2       8 UNK         0.5039 
     34 O          26.5149  -51.4784  -58.0043 O.2       8 UNK        -0.5547 
     35 CA         27.8423  -51.5349  -56.0208 C.3       7 UNK         0.0281 
     36 CB         29.2446  -52.1116  -56.2779 C.3       7 UNK        -0.1963 
     37 N          27.8814  -50.6631  -54.8463 N.am      7 UNK        -0.4444 
     38 C          26.8045  -50.2736  -54.1498 C.2       7 UNK         0.5104 
     39 O          25.6445  -50.5176  -54.4823 O.2       7 UNK        -0.5100 
     40 CA         27.0686  -49.5067  -52.8446 C.3       6 UNK         0.0396 
     41 CB         27.5328  -50.4660  -51.7361 C.3       6 UNK        -0.1801 
     42 N          28.0763  -48.4658  -53.0387 N.am      6 UNK        -0.4747 
     43 C          27.7963  -47.1910  -53.3447 C.2       6 UNK         0.5012 
     44 O          26.6513  -46.7438  -53.4048 O.2       6 UNK        -0.5003 
     45 CA         28.9889  -46.2635  -53.6710 C.3       5 UNK         0.0782 
     46 C46        29.3406  -45.3245  -52.4883 C.3       11 UNK        -0.0868 
     47 S47        28.3236  -43.8060  -52.5330 S.3       11 UNK        -0.2515 
     48 C48        29.5245  -42.4899  -52.9359 C.3       11 UNK         0.0199 
     49 N          30.1528  -47.0036  -54.1740 N.am      5 UNK        -0.4607 
     50 C          30.1688  -47.5817  -55.3840 C.2       4 UNK         0.5031 
     51 O          29.2158  -47.5411  -56.1631 O.2       4 UNK        -0.5119 
     52 CA         31.4139  -48.3765  -55.8020 C.3       4 UNK         0.0263 
     53 CB         32.3716  -47.4780  -56.6001 C.3       4 UNK        -0.1967 
     54 N          32.1348  -49.0350  -54.7089 N.am      4 UNK        -0.4237 
     55 C          31.6210  -49.9281  -53.8501 C.2       3 UNK         0.4908 
     56 O          30.4220  -50.2046  -53.8070 O.2       3 UNK        -0.5102 
     57 CA         32.5722  -50.6347  -52.8620 C.3       3 UNK         0.0241 
     58 CB         32.5899  -52.1572  -53.1041 C.3       3 UNK        -0.1971 
     59 N          33.9350  -50.0857  -52.7994 N.am      3 UNK        -0.4139 
     60 C          34.8974  -50.0767  -53.7349 C.2       2 UNK         0.5016 
     61 O          34.7952  -50.6269  -54.8314 O.2       2 UNK        -0.5319 
     62 CA         36.1297  -49.2013  -53.4211 C.3       2 UNK         0.0286 
     63 CB         37.1595  -49.1870  -54.5661 C.3       2 UNK        -0.1963 
     64 N          35.7017  -47.8243  -53.1501 N.am      2 UNK        -0.4790 
     65 C          35.1940  -47.3995  -51.9860 C.2       1 UNK         0.5024 
     66 O          35.2392  -48.0794  -50.9569 O.2       1 UNK        -0.4888 
     67 H67        31.2760  -47.4753  -49.0888 H         1 UNK         0.0892 
     68 H68        30.6981  -45.8909  -49.6116 H         1 UNK         0.0892 
     69 H69        32.1887  -46.0247  -48.6757 H         1 UNK         0.0892 
     70 H70        33.8335  -45.4158  -50.0774 H         1 UNK         0.3107 
     71 H71        35.2136  -45.2775  -51.7928 H         1 UNK         0.0773 
     72 H72        33.3274  -46.6153  -53.7843 H         1 UNK         0.0680 
     73 H73        32.9166  -45.0715  -53.1619 H         1 UNK         0.0680 
     74 H74        34.4559  -42.7121  -53.7523 H         1 UNK         0.0650 
     75 H75        34.7275  -42.6969  -55.4764 H         1 UNK         0.0650 
     76 H76        32.2379  -42.5668  -52.9329 H         1 UNK         0.1397 
     77 H77        28.8706  -43.1807  -55.5129 H         1 UNK         0.1363 
     78 H78        32.8543  -43.7986  -56.9894 H         1 UNK         0.1355 
     79 H79        29.4979  -44.7118  -57.5984 H         1 UNK         0.0707 
     80 H80        31.0012  -44.3254  -58.4012 H         1 UNK         0.0707 
     81 H81        29.0871  -44.2102  -60.2515 H         1 UNK         0.1034 
     82 H82        28.6591  -42.6201  -60.8185 H         1 UNK         0.1034 
     83 H83        26.6432  -42.6257  -59.2963 H         1 UNK         0.0482 
     84 H84        25.6299  -45.7661  -60.2260 H         1 UNK         0.3460 
     85 H85        25.1180  -45.3202  -61.8345 H         1 UNK         0.3460 
     86 H86        27.6774  -45.2294  -58.4756 H         1 UNK         0.2989 
     87 H87        26.5332  -45.4806  -55.8637 H         1 UNK         0.0559 
     88 H88        24.6319  -47.0705  -55.5008 H         1 UNK         0.0848 
     89 H89        23.9090  -46.5562  -57.0257 H         1 UNK         0.0848 
     90 H90        24.0738  -45.4187  -55.6953 H         1 UNK         0.0848 
     91 H91        27.5311  -47.2534  -56.7427 H         1 UNK         0.3144 
     92 H92        26.8123  -49.4758  -59.4451 H         1 UNK         0.0727 
     93 H93        29.2510  -49.1246  -59.7527 H         1 UNK         0.0790 
     94 H94        29.1870  -47.6466  -58.7980 H         1 UNK         0.0790 
     95 H95        28.3363  -47.7432  -60.3325 H         1 UNK         0.0790 
     96 H96        28.3449  -49.1525  -56.8875 H         1 UNK         0.3215 
     97 H97        27.1780  -52.3707  -55.7893 H         1 UNK         0.0863 
     98 H98        29.6086  -52.6686  -55.4142 H         1 UNK         0.0808 
     99 H99        29.9712  -51.3299  -56.4994 H         1 UNK         0.0808 
    100 H100       29.2351  -52.7980  -57.1257 H         1 UNK         0.0808 
    101 H101       28.8050  -50.4472  -54.4716 H         1 UNK         0.3118 
    102 H102       26.1267  -49.0589  -52.5203 H         1 UNK         0.0546 
    103 H103       26.7959  -51.2526  -51.5682 H         1 UNK         0.0828 
    104 H104       27.6662  -49.9408  -50.7903 H         1 UNK         0.0828 
    105 H105       28.4773  -50.9520  -51.9836 H         1 UNK         0.0828 
    106 H106       29.0435  -48.7691  -53.0588 H         1 UNK         0.3005 
    107 H107       28.6576  -45.6376  -54.5025 H         1 UNK         0.1257 
    108 H108       30.3932  -45.0427  -52.5203 H         1 UNK         0.0775 
    109 H109       29.2024  -45.8221  -51.5270 H         1 UNK         0.0775 
    110 H110       28.9779  -41.5780  -53.1797 H         1 UNK         0.0840 
    111 H111       30.0997  -42.2672  -52.0358 H         1 UNK         0.0840 
    112 H112       30.9340  -47.1245  -53.5378 H         1 UNK         0.2987 
    113 H113       31.0733  -49.1694  -56.4700 H         1 UNK         0.0785 
    114 H114       32.7121  -46.6233  -56.0169 H         1 UNK         0.0798 
    115 H115       31.8773  -47.0797  -57.4875 H         1 UNK         0.0798 
    116 H116       33.2491  -48.0281  -56.9402 H         1 UNK         0.0798 
    117 H117       33.1355  -48.9089  -54.6913 H         1 UNK         0.3079 
    118 H118       32.1445  -50.4629  -51.8730 H         1 UNK         0.0794 
    119 H119       32.9599  -52.4076  -54.0987 H         1 UNK         0.0786 
    120 H120       31.5864  -52.5767  -53.0198 H         1 UNK         0.0786 
    121 H121       33.2162  -52.6683  -52.3731 H         1 UNK         0.0786 
    122 H122       34.1332  -49.5543  -51.9577 H         1 UNK         0.3032 
    123 H123       36.6151  -49.6203  -52.5363 H         1 UNK         0.1094 
    124 H124       36.7370  -48.7830  -55.4871 H         1 UNK         0.0794 
    125 H125       38.0318  -48.5869  -54.3063 H         1 UNK         0.0794 
    126 H126       37.5147  -50.1951  -54.7842 H         1 UNK         0.0794 
    127 H127       35.6306  -47.2053  -53.9480 H         1 UNK         0.3016 
@<TRIPOS>BOND
     1    1    2 1    
     2    1   67 1    
     3    1   68 1    
     4    1   69 1    
     5    2    3 2    
     6    2    4 am   BACKBONE|DICT|INTERRES
     7    4    5 1    
     8    4   70 1    
     9    5    6 1    
    10    5   65 1    
    11    5   71 1    
    12    6    7 1    
    13    6   72 1    
    14    6   73 1    
    15    7    8 1    
    16    8    9 1    
    17    8   74 1    
    18    8   75 1    
    19    9   10 ar   
    20    9   14 ar   
    21   10   11 ar   
    22   10   76 1    
    23   11   12 ar   
    24   11   48 1    
    25   12   13 ar   
    26   12   77 1    
    27   13   14 ar   
    28   13   15 1    
    29   14   78 1    
    30   15   16 1    
    31   15   79 1    
    32   15   80 1    
    33   16   17 1    
    34   17   18 1    
    35   17   81 1    
    36   17   82 1    
    37   18   19 1    
    38   18   22 1    
    39   18   83 1    
    40   19   20 am   BACKBONE|DICT|INTERRES
    41   19   21 2    
    42   20   84 1    
    43   20   85 1    
    44   22   23 am   BACKBONE|DICT|INTERRES
    45   22   86 1    
    46   23   24 2    
    47   23   25 1    
    48   25   26 1    
    49   25   27 1    
    50   25   87 1    
    51   26   88 1    
    52   26   89 1    
    53   26   90 1    
    54   27   28 am   BACKBONE|DICT|INTERRES
    55   27   91 1    
    56   28   29 2    
    57   28   30 1    
    58   30   31 1    
    59   30   32 1    
    60   30   92 1    
    61   31   93 1    
    62   31   94 1    
    63   31   95 1    
    64   32   33 am   BACKBONE|DICT|INTERRES
    65   32   96 1    
    66   33   34 2    
    67   33   35 1    
    68   35   36 1    
    69   35   37 1    
    70   35   97 1    
    71   36   98 1    
    72   36   99 1    
    73   36  100 1    
    74   37   38 am   BACKBONE|DICT|INTERRES
    75   37  101 1    
    76   38   39 2    
    77   38   40 1    
    78   40   41 1    
    79   40   42 1    
    80   40  102 1    
    81   41  103 1    
    82   41  104 1    
    83   41  105 1    
    84   42   43 am   BACKBONE|DICT|INTERRES
    85   42  106 1    
    86   43   44 2    
    87   43   45 1    
    88   45   46 1    
    89   45   49 1    
    90   45  107 1    
    91   46   47 1    
    92   46  108 1    
    93   46  109 1    
    94   47   48 1    
    95   48  110 1    
    96   48  111 1    
    97   49   50 am   BACKBONE|DICT|INTERRES
    98   49  112 1    
    99   50   51 2    
   100   50   52 1    
   101   52   53 1    
   102   52   54 1    
   103   52  113 1    
   104   53  114 1    
   105   53  115 1    
   106   53  116 1    
   107   54   55 am   BACKBONE|DICT|INTERRES
   108   54  117 1    
   109   55   56 2    
   110   55   57 1    
   111   57   58 1    
   112   57   59 1    
   113   57  118 1    
   114   58  119 1    
   115   58  120 1    
   116   58  121 1    
   117   59   60 am   BACKBONE|DICT|INTERRES
   118   59  122 1    
   119   60   61 2    
   120   60   62 1    
   121   62   63 1    
   122   62   64 1    
   123   62  123 1    
   124   63  124 1    
   125   63  125 1    
   126   63  126 1    
   127   64   65 am   BACKBONE|DICT|INTERRES
   128   64  127 1    
   129   65   66 2    
@<TRIPOS>SUBSTRUCTURE
     1 UNK         1 GROUP             0       ****    0 ROOT    
