@<TRIPOS>MOLECULE
3R134
127   129    1
SMALL
USER_CHARGES


@<TRIPOS>ATOM
      1 CA         37.4505  -47.9248  -54.2702 C.3       0 UNK        -0.1968 
      2 C          36.1151  -48.0240  -53.5496 C.2       0 UNK         0.4852 
      3 O          35.7311  -49.1170  -53.1316 O.2       0 UNK        -0.5359 
      4 N          35.4215  -46.8882  -53.3796 N.am      1 UNK        -0.4300 
      5 CA         34.0781  -46.7589  -52.7906 C.3       1 UNK         0.0863 
      6 C6         33.5957  -45.2902  -52.7810 C.3       11 UNK        -0.0953 
      7 S7         33.5114  -44.5738  -54.4564 S.3       11 UNK        -0.2369 
      8 C8         32.1767  -43.3543  -54.2551 C.3       11 UNK         0.0226 
      9 C9         30.8217  -43.9244  -54.6477 C.ar      11 UNK        -0.0699 
     10 C10        30.0470  -44.6308  -53.7206 C.ar      11 UNK        -0.0804 
     11 C11        28.7909  -45.1285  -54.0801 C.ar      11 UNK        -0.0871 
     12 C12        28.3032  -44.8953  -55.3688 C.ar      11 UNK        -0.1008 
     13 C13        29.0642  -44.1869  -56.3009 C.ar      11 UNK        -0.0735 
     14 C14        30.3273  -43.7123  -55.9389 C.ar      11 UNK        -0.0945 
     15 C15        28.5055  -43.9220  -57.6884 C.3       11 UNK         0.0169 
     16 S16        27.7414  -42.2738  -57.7748 S.3       11 UNK        -0.2669 
     17 C17        26.5651  -42.4957  -59.1543 C.3       11 UNK        -0.0850 
     18 CA         25.0953  -42.6302  -58.6713 C.3       10 UNK         0.0855 
     19 C          24.1070  -42.7188  -59.8723 C.2       10 UNK         0.5543 
     20 N          23.2541  -43.7322  -59.9731 N.am      10 UNK        -0.7343 
     21 O          24.1101  -41.8406  -60.7313 O.2       10 UNK        -0.5027 
     22 N          24.9341  -43.7058  -57.6786 N.am      10 UNK        -0.4495 
     23 C          24.0026  -43.7226  -56.7181 C.2       10 UNK         0.4903 
     24 O          23.2045  -42.8043  -56.5226 O.2       10 UNK        -0.4860 
     25 CA         23.9588  -44.9845  -55.8316 C.3       9 UNK         0.0227 
     26 CB         22.6199  -45.1338  -55.0788 C.3       9 UNK        -0.1964 
     27 N          24.2788  -46.2266  -56.5496 N.am      9 UNK        -0.4231 
     28 C          23.6695  -46.7293  -57.6327 C.2       9 UNK         0.5014 
     29 O          22.7767  -46.1503  -58.2551 O.2       9 UNK        -0.5270 
     30 CA         24.1763  -48.1027  -58.1131 C.3       8 UNK         0.0284 
     31 CB         23.1051  -48.8648  -58.9153 C.3       8 UNK        -0.1977 
     32 N          25.3906  -47.9965  -58.9254 N.am      8 UNK        -0.4342 
     33 C          26.5933  -47.6162  -58.4798 C.2       8 UNK         0.5039 
     34 O          26.8226  -47.2890  -57.3107 O.2       8 UNK        -0.5547 
     35 CA         27.7290  -47.5930  -59.5093 C.3       7 UNK         0.0281 
     36 CB         27.5199  -46.4992  -60.5748 C.3       7 UNK        -0.1963 
     37 N          28.9760  -47.3743  -58.7865 N.am      7 UNK        -0.4444 
     38 C          30.2098  -47.6286  -59.2308 C.2       7 UNK         0.5104 
     39 O          30.4605  -48.0245  -60.3697 O.2       7 UNK        -0.5100 
     40 CA         31.3673  -47.4158  -58.2374 C.3       6 UNK         0.0396 
     41 CB         32.0560  -46.0654  -58.4910 C.3       6 UNK        -0.1801 
     42 N          30.9751  -47.4949  -56.8257 N.am      6 UNK        -0.4747 
     43 C          30.5882  -48.6176  -56.2021 C.2       6 UNK         0.5012 
     44 O          30.4241  -49.7003  -56.7701 O.2       6 UNK        -0.5003 
     45 CA         30.3375  -48.5021  -54.6846 C.3       5 UNK         0.0782 
     46 C46        28.8357  -48.2748  -54.3861 C.3       11 UNK        -0.0868 
     47 S47        28.6164  -47.5651  -52.7194 S.3       11 UNK        -0.2515 
     48 C48        27.9459  -45.9066  -53.0786 C.3       11 UNK         0.0199 
     49 N          30.8439  -49.6707  -53.9541 N.am      5 UNK        -0.4607 
     50 C          32.1132  -50.0933  -53.9388 C.2       4 UNK         0.5031 
     51 O          33.0332  -49.5416  -54.5423 O.2       4 UNK        -0.5119 
     52 CA         32.3986  -51.3660  -53.1382 C.3       4 UNK         0.0263 
     53 CB         32.4322  -52.5943  -54.0679 C.3       4 UNK        -0.1967 
     54 N          33.6717  -51.2170  -52.4356 N.am      4 UNK        -0.4237 
     55 C          34.0520  -51.9535  -51.3829 C.2       3 UNK         0.4908 
     56 O          33.3797  -52.8699  -50.9078 O.2       3 UNK        -0.5102 
     57 CA         35.3945  -51.5989  -50.7298 C.3       3 UNK         0.0241 
     58 CB         36.5759  -52.0528  -51.6045 C.3       3 UNK        -0.1971 
     59 N          35.4780  -50.1607  -50.4785 N.am      3 UNK        -0.4139 
     60 C          35.0674  -49.5645  -49.3495 C.2       2 UNK         0.5016 
     61 O          34.6542  -50.1769  -48.3637 O.2       2 UNK        -0.5319 
     62 CA         35.1251  -48.0255  -49.2945 C.3       2 UNK         0.0286 
     63 CB         36.4130  -47.5609  -48.5954 C.3       2 UNK        -0.1963 
     64 N          35.0380  -47.3880  -50.6103 N.am      2 UNK        -0.4790 
     65 C          33.9397  -47.3716  -51.3800 C.2       1 UNK         0.5024 
     66 O          32.8535  -47.8299  -51.0252 O.2       1 UNK        -0.4888 
     67 H67        38.2527  -48.2774  -53.6226 H         1 UNK         0.0892 
     68 H68        37.4372  -48.5460  -55.1653 H         1 UNK         0.0892 
     69 H69        37.6789  -46.9022  -54.5697 H         1 UNK         0.0892 
     70 H70        35.8003  -46.0283  -53.7504 H         1 UNK         0.3107 
     71 H71        33.4001  -47.3165  -53.4351 H         1 UNK         0.0773 
     72 H72        32.6091  -45.2236  -52.3215 H         1 UNK         0.0680 
     73 H73        34.2572  -44.6695  -52.1736 H         1 UNK         0.0680 
     74 H74        32.4070  -42.4875  -54.8765 H         1 UNK         0.0650 
     75 H75        32.1522  -42.9862  -53.2283 H         1 UNK         0.0650 
     76 H76        30.4144  -44.7938  -52.7174 H         1 UNK         0.1397 
     77 H77        27.3261  -45.2642  -55.6482 H         1 UNK         0.1363 
     78 H78        30.9150  -43.1565  -56.6569 H         1 UNK         0.1355 
     79 H79        27.7651  -44.6837  -57.9308 H         1 UNK         0.0707 
     80 H80        29.2904  -44.0000  -58.4417 H         1 UNK         0.0707 
     81 H81        26.6656  -41.6257  -59.8062 H         1 UNK         0.1034 
     82 H82        26.8546  -43.3512  -59.7638 H         1 UNK         0.1034 
     83 H83        24.8496  -41.6903  -58.1729 H         1 UNK         0.0482 
     84 H84        22.6229  -43.7625  -60.7576 H         1 UNK         0.3460 
     85 H85        23.2088  -44.4595  -59.2676 H         1 UNK         0.3460 
     86 H86        25.5343  -44.5089  -57.7811 H         1 UNK         0.2989 
     87 H87        24.7438  -44.8541  -55.0853 H         1 UNK         0.0559 
     88 H88        21.7788  -45.2229  -55.7674 H         1 UNK         0.0848 
     89 H89        22.4284  -44.2703  -54.4407 H         1 UNK         0.0848 
     90 H90        22.6215  -46.0139  -54.4358 H         1 UNK         0.0848 
     91 H91        25.0931  -46.7350  -56.2201 H         1 UNK         0.3144 
     92 H92        24.4099  -48.6985  -57.2278 H         1 UNK         0.0727 
     93 H93        23.4369  -49.8731  -59.1637 H         1 UNK         0.0790 
     94 H94        22.8545  -48.3544  -59.8464 H         1 UNK         0.0790 
     95 H95        22.1833  -48.9616  -58.3398 H         1 UNK         0.0790 
     96 H96        25.2894  -48.2221  -59.9047 H         1 UNK         0.3215 
     97 H97        27.7679  -48.5729  -59.9901 H         1 UNK         0.0863 
     98 H98        28.3043  -46.5274  -61.3311 H         1 UNK         0.0808 
     99 H99        27.5230  -45.5043  -60.1358 H         1 UNK         0.0808 
    100 H100       26.5712  -46.6240  -61.0978 H         1 UNK         0.0808 
    101 H101       28.8388  -47.1151  -57.8164 H         1 UNK         0.3118 
    102 H102       32.0989  -48.2056  -58.4211 H         1 UNK         0.0546 
    103 H103       31.3821  -45.2276  -58.3149 H         1 UNK         0.0828 
    104 H104       32.4026  -45.9920  -59.5227 H         1 UNK         0.0828 
    105 H105       32.9273  -45.9356  -57.8484 H         1 UNK         0.0828 
    106 H106       31.0617  -46.6413  -56.2911 H         1 UNK         0.3005 
    107 H107       30.9033  -47.6374  -54.3289 H         1 UNK         0.1257 
    108 H108       28.3729  -47.6182  -55.1227 H         1 UNK         0.0775 
    109 H109       28.2798  -49.2120  -54.4500 H         1 UNK         0.0775 
    110 H110       26.9217  -46.0141  -53.4398 H         1 UNK         0.0840 
    111 H111       27.8800  -45.3427  -52.1471 H         1 UNK         0.0840 
    112 H112       30.1506  -50.1965  -53.4430 H         1 UNK         0.2987 
    113 H113       31.6061  -51.4965  -52.3978 H         1 UNK         0.0785 
    114 H114       31.4991  -52.6883  -54.6251 H         1 UNK         0.0798 
    115 H115       32.5676  -53.5194  -53.5077 H         1 UNK         0.0798 
    116 H116       33.2413  -52.5218  -54.7959 H         1 UNK         0.0798 
    117 H117       34.2740  -50.4704  -52.7797 H         1 UNK         0.3079 
    118 H118       35.4609  -52.1387  -49.7825 H         1 UNK         0.0794 
    119 H119       37.5296  -51.8289  -51.1263 H         1 UNK         0.0786 
    120 H120       36.5727  -51.5724  -52.5832 H         1 UNK         0.0786 
    121 H121       36.5423  -53.1301  -51.7721 H         1 UNK         0.0786 
    122 H122       35.7369  -49.5840  -51.2746 H         1 UNK         0.3032 
    123 H123       34.2718  -47.6919  -48.6991 H         1 UNK         0.1094 
    124 H124       37.3039  -47.8539  -49.1525 H         1 UNK         0.0794 
    125 H125       36.4315  -46.4775  -48.4751 H         1 UNK         0.0794 
    126 H126       36.4945  -47.9968  -47.5985 H         1 UNK         0.0794 
    127 H127       35.8871  -46.9875  -50.9831 H         1 UNK         0.3016 
@<TRIPOS>BOND
     1    1    2 1    
     2    1   67 1    
     3    1   68 1    
     4    1   69 1    
     5    2    3 2    
     6    2    4 am   BACKBONE|DICT|INTERRES
     7    4    5 1    
     8    4   70 1    
     9    5    6 1    
    10    5   65 1    
    11    5   71 1    
    12    6    7 1    
    13    6   72 1    
    14    6   73 1    
    15    7    8 1    
    16    8    9 1    
    17    8   74 1    
    18    8   75 1    
    19    9   10 ar   
    20    9   14 ar   
    21   10   11 ar   
    22   10   76 1    
    23   11   12 ar   
    24   11   48 1    
    25   12   13 ar   
    26   12   77 1    
    27   13   14 ar   
    28   13   15 1    
    29   14   78 1    
    30   15   16 1    
    31   15   79 1    
    32   15   80 1    
    33   16   17 1    
    34   17   18 1    
    35   17   81 1    
    36   17   82 1    
    37   18   19 1    
    38   18   22 1    
    39   18   83 1    
    40   19   20 am   BACKBONE|DICT|INTERRES
    41   19   21 2    
    42   20   84 1    
    43   20   85 1    
    44   22   23 am   BACKBONE|DICT|INTERRES
    45   22   86 1    
    46   23   24 2    
    47   23   25 1    
    48   25   26 1    
    49   25   27 1    
    50   25   87 1    
    51   26   88 1    
    52   26   89 1    
    53   26   90 1    
    54   27   28 am   BACKBONE|DICT|INTERRES
    55   27   91 1    
    56   28   29 2    
    57   28   30 1    
    58   30   31 1    
    59   30   32 1    
    60   30   92 1    
    61   31   93 1    
    62   31   94 1    
    63   31   95 1    
    64   32   33 am   BACKBONE|DICT|INTERRES
    65   32   96 1    
    66   33   34 2    
    67   33   35 1    
    68   35   36 1    
    69   35   37 1    
    70   35   97 1    
    71   36   98 1    
    72   36   99 1    
    73   36  100 1    
    74   37   38 am   BACKBONE|DICT|INTERRES
    75   37  101 1    
    76   38   39 2    
    77   38   40 1    
    78   40   41 1    
    79   40   42 1    
    80   40  102 1    
    81   41  103 1    
    82   41  104 1    
    83   41  105 1    
    84   42   43 am   BACKBONE|DICT|INTERRES
    85   42  106 1    
    86   43   44 2    
    87   43   45 1    
    88   45   46 1    
    89   45   49 1    
    90   45  107 1    
    91   46   47 1    
    92   46  108 1    
    93   46  109 1    
    94   47   48 1    
    95   48  110 1    
    96   48  111 1    
    97   49   50 am   BACKBONE|DICT|INTERRES
    98   49  112 1    
    99   50   51 2    
   100   50   52 1    
   101   52   53 1    
   102   52   54 1    
   103   52  113 1    
   104   53  114 1    
   105   53  115 1    
   106   53  116 1    
   107   54   55 am   BACKBONE|DICT|INTERRES
   108   54  117 1    
   109   55   56 2    
   110   55   57 1    
   111   57   58 1    
   112   57   59 1    
   113   57  118 1    
   114   58  119 1    
   115   58  120 1    
   116   58  121 1    
   117   59   60 am   BACKBONE|DICT|INTERRES
   118   59  122 1    
   119   60   61 2    
   120   60   62 1    
   121   62   63 1    
   122   62   64 1    
   123   62  123 1    
   124   63  124 1    
   125   63  125 1    
   126   63  126 1    
   127   64   65 am   BACKBONE|DICT|INTERRES
   128   64  127 1    
   129   65   66 2    
@<TRIPOS>SUBSTRUCTURE
     1 UNK         1 GROUP             0       ****    0 ROOT    
