@<TRIPOS>MOLECULE
3R134
127   129    1
SMALL
USER_CHARGES


@<TRIPOS>ATOM
      1 CA         31.7001  -44.7567  -47.8407 C.3       0 UNK        -0.1968 
      2 C          31.6572  -45.4502  -49.1947 C.2       0 UNK         0.4852 
      3 O          30.7447  -46.2398  -49.4409 O.2       0 UNK        -0.5359 
      4 N          32.6390  -45.1567  -50.0610 N.am      1 UNK        -0.4300 
      5 CA         32.8070  -45.6918  -51.4215 C.3       1 UNK         0.0863 
      6 C6         31.7089  -45.2360  -52.4223 C.3       11 UNK        -0.0953 
      7 S7         31.5146  -43.4233  -52.4827 S.3       11 UNK        -0.2369 
      8 C8         32.8109  -42.9394  -53.6689 C.3       11 UNK         0.0226 
      9 C9         32.4758  -43.3190  -55.1054 C.ar      11 UNK        -0.0699 
     10 C10        33.3229  -44.1641  -55.8315 C.ar      11 UNK        -0.0804 
     11 C11        33.0384  -44.4771  -57.1648 C.ar      11 UNK        -0.0871 
     12 C12        31.9012  -43.9342  -57.7710 C.ar      11 UNK        -0.1008 
     13 C13        31.0340  -43.1115  -57.0483 C.ar      11 UNK        -0.0735 
     14 C14        31.3320  -42.7982  -55.7196 C.ar      11 UNK        -0.0945 
     15 C15        29.7715  -42.5744  -57.7025 C.3       11 UNK         0.0169 
     16 S16        28.4854  -43.8586  -57.7748 S.3       11 UNK        -0.2669 
     17 C17        27.0861  -42.9178  -58.4778 C.3       11 UNK        -0.0850 
     18 CA         25.9676  -42.6388  -57.4307 C.3       10 UNK         0.0855 
     19 C          24.8682  -41.6706  -57.9662 C.2       10 UNK         0.5543 
     20 N          23.6140  -41.8032  -57.5519 N.am      10 UNK        -0.7343 
     21 O          25.1580  -40.7627  -58.7421 O.2       10 UNK        -0.5027 
     22 N          25.4577  -43.8700  -56.7980 N.am      10 UNK        -0.4495 
     23 C          24.8159  -44.8759  -57.4053 C.2       10 UNK         0.4903 
     24 O          24.5118  -44.8795  -58.5994 O.2       10 UNK        -0.4860 
     25 CA         24.4853  -46.0921  -56.5191 C.3       9 UNK         0.0227 
     26 CB         23.6020  -47.1275  -57.2393 C.3       9 UNK        -0.1964 
     27 N          25.7087  -46.7494  -56.0530 N.am      9 UNK        -0.4231 
     28 C          26.4797  -46.3239  -55.0398 C.2       9 UNK         0.5014 
     29 O          26.2068  -45.3314  -54.3602 O.2       9 UNK        -0.5270 
     30 CA         27.7796  -47.1049  -54.7592 C.3       8 UNK         0.0284 
     31 CB         28.2390  -47.0179  -53.2881 C.3       8 UNK        -0.1977 
     32 N          27.7386  -48.4941  -55.2306 N.am      8 UNK        -0.4342 
     33 C          26.9598  -49.4947  -54.7878 C.2       8 UNK         0.5039 
     34 O          26.1842  -49.3886  -53.8370 O.2       8 UNK        -0.5547 
     35 CA         27.0636  -50.8437  -55.5339 C.3       7 UNK         0.0281 
     36 CB         25.7469  -51.6489  -55.4931 C.3       7 UNK        -0.1963 
     37 N          27.5648  -50.7205  -56.9103 N.am      7 UNK        -0.4444 
     38 C          26.9867  -50.0680  -57.9315 C.2       7 UNK         0.5104 
     39 O          25.8911  -49.5115  -57.8543 O.2       7 UNK        -0.5100 
     40 CA         27.8251  -49.9553  -59.2254 C.3       6 UNK         0.0396 
     41 CB         27.2554  -48.9147  -60.2133 C.3       6 UNK        -0.1801 
     42 N          29.2472  -49.6870  -58.9533 N.am      6 UNK        -0.4747 
     43 C          29.7296  -48.6680  -58.2247 C.2       6 UNK         0.5012 
     44 O          29.0222  -47.7810  -57.7462 O.2       6 UNK        -0.5003 
     45 CA         31.2305  -48.6892  -57.8740 C.3       5 UNK         0.0782 
     46 C46        31.8501  -47.2906  -58.1146 C.3       11 UNK        -0.0868 
     47 S47        33.6022  -47.1670  -57.6187 S.3       11 UNK        -0.2515 
     48 C48        33.9499  -45.4085  -57.9543 C.3       11 UNK         0.0199 
     49 N          31.4215  -49.1228  -56.4850 N.am      5 UNK        -0.4607 
     50 C          31.0232  -50.2786  -55.9375 C.2       4 UNK         0.5031 
     51 O          30.4199  -51.1602  -56.5527 O.2       4 UNK        -0.5119 
     52 CA         31.3503  -50.4641  -54.4446 C.3       4 UNK         0.0263 
     53 CB         31.0995  -51.9029  -53.9460 C.3       4 UNK        -0.1967 
     54 N          32.7052  -50.0212  -54.0925 N.am      4 UNK        -0.4237 
     55 C          33.8702  -50.4893  -54.5759 C.2       3 UNK         0.4908 
     56 O          33.9567  -51.3602  -55.4423 O.2       3 UNK        -0.5102 
     57 CA         35.1720  -49.8971  -53.9953 C.3       3 UNK         0.0241 
     58 CB         35.7614  -48.8519  -54.9568 C.3       3 UNK        -0.1971 
     59 N          35.0060  -49.2854  -52.6745 N.am      3 UNK        -0.4139 
     60 C          34.6687  -49.9387  -51.5536 C.2       2 UNK         0.5016 
     61 O          34.6074  -51.1659  -51.4710 O.2       2 UNK        -0.5319 
     62 CA         34.3034  -49.0852  -50.3223 C.3       2 UNK         0.0286 
     63 CB         35.4308  -49.1401  -49.2781 C.3       2 UNK        -0.1963 
     64 N          33.9763  -47.6766  -50.5948 N.am      2 UNK        -0.4790 
     65 C          33.0042  -47.2232  -51.4033 C.2       1 UNK         0.5024 
     66 O          32.3022  -47.9560  -52.1036 O.2       1 UNK        -0.4888 
     67 H67        32.5528  -44.0838  -47.7519 H         1 UNK         0.0892 
     68 H68        30.7920  -44.1736  -47.6900 H         1 UNK         0.0892 
     69 H69        31.7672  -45.4958  -47.0427 H         1 UNK         0.0892 
     70 H70        33.3452  -44.4916  -49.7778 H         1 UNK         0.3107 
     71 H71        33.7528  -45.2865  -51.7837 H         1 UNK         0.0773 
     72 H72        30.7441  -45.6633  -52.1461 H         1 UNK         0.0680 
     73 H73        31.9235  -45.6008  -53.4285 H         1 UNK         0.0680 
     74 H74        32.9391  -41.8574  -53.6174 H         1 UNK         0.0650 
     75 H75        33.7626  -43.3730  -53.3592 H         1 UNK         0.0650 
     76 H76        34.2054  -44.5780  -55.3631 H         1 UNK         0.1397 
     77 H77        31.6689  -44.1790  -58.7987 H         1 UNK         0.1363 
     78 H78        30.6702  -42.1540  -55.1569 H         1 UNK         0.1355 
     79 H79        29.3921  -41.7121  -57.1516 H         1 UNK         0.0707 
     80 H80        29.9981  -42.2267  -58.7116 H         1 UNK         0.0707 
     81 H81        26.6853  -43.4764  -59.3250 H         1 UNK         0.1034 
     82 H82        27.4644  -41.9832  -58.8957 H         1 UNK         0.1034 
     83 H83        26.4335  -42.0817  -56.6172 H         1 UNK         0.0482 
     84 H84        23.3666  -42.5372  -56.9079 H         1 UNK         0.3460 
     85 H85        22.9095  -41.1679  -57.8922 H         1 UNK         0.3460 
     86 H86        25.6901  -43.9944  -55.8180 H         1 UNK         0.2989 
     87 H87        23.9272  -45.7288  -55.6536 H         1 UNK         0.0559 
     88 H88        22.6546  -46.6843  -57.5486 H         1 UNK         0.0848 
     89 H89        23.3693  -47.9722  -56.5905 H         1 UNK         0.0848 
     90 H90        24.0857  -47.5191  -58.1351 H         1 UNK         0.0848 
     91 H91        26.0090  -47.5599  -56.5808 H         1 UNK         0.3144 
     92 H92        28.5453  -46.6114  -55.3599 H         1 UNK         0.0727 
     93 H93        29.1761  -47.5526  -53.1314 H         1 UNK         0.0790 
     94 H94        27.4966  -47.4302  -52.6046 H         1 UNK         0.0790 
     95 H95        28.4073  -45.9813  -52.9938 H         1 UNK         0.0790 
     96 H96        28.2810  -48.6526  -56.0732 H         1 UNK         0.3215 
     97 H97        27.8153  -51.4216  -54.9946 H         1 UNK         0.0863 
     98 H98        25.8438  -52.5965  -56.0226 H         1 UNK         0.0808 
     99 H99        24.9193  -51.0968  -55.9394 H         1 UNK         0.0808 
    100 H100       25.4625  -51.8817  -54.4662 H         1 UNK         0.0808 
    101 H101       28.5053  -51.0814  -57.0547 H         1 UNK         0.3118 
    102 H102       27.7781  -50.9328  -59.7074 H         1 UNK         0.0546 
    103 H103       27.2233  -47.9154  -59.7773 H         1 UNK         0.0828 
    104 H104       26.2370  -49.1717  -60.5070 H         1 UNK         0.0828 
    105 H105       27.8511  -48.8640  -61.1245 H         1 UNK         0.0828 
    106 H106       29.8907  -50.4062  -59.2566 H         1 UNK         0.3005 
    107 H107       31.7371  -49.4083  -58.5209 H         1 UNK         0.1257 
    108 H108       31.7666  -47.0090  -59.1660 H         1 UNK         0.0775 
    109 H109       31.2915  -46.5442  -57.5478 H         1 UNK         0.0775 
    110 H110       34.9916  -45.2006  -57.7053 H         1 UNK         0.0840 
    111 H111       33.8522  -45.2220  -59.0250 H         1 UNK         0.0840 
    112 H112       31.9229  -48.4696  -55.9014 H         1 UNK         0.2987 
    113 H113       30.6673  -49.8072  -53.9033 H         1 UNK         0.0785 
    114 H114       31.3190  -51.9967  -52.8824 H         1 UNK         0.0798 
    115 H115       31.7137  -52.6288  -54.4799 H         1 UNK         0.0798 
    116 H116       30.0579  -52.1925  -54.0880 H         1 UNK         0.0798 
    117 H117       32.7389  -49.2918  -53.3838 H         1 UNK         0.3079 
    118 H118       35.8860  -50.7176  -53.8975 H         1 UNK         0.0794 
    119 H119       35.8949  -49.2690  -55.9561 H         1 UNK         0.0786 
    120 H120       36.7387  -48.5072  -54.6185 H         1 UNK         0.0786 
    121 H121       35.1123  -47.9808  -55.0528 H         1 UNK         0.0786 
    122 H122       35.0512  -48.2784  -52.6314 H         1 UNK         0.3032 
    123 H123       33.4118  -49.5413  -49.8861 H         1 UNK         0.1094 
    124 H124       36.3425  -48.6660  -49.6437 H         1 UNK         0.0794 
    125 H125       35.1403  -48.6439  -48.3518 H         1 UNK         0.0794 
    126 H126       35.6799  -50.1715  -49.0237 H         1 UNK         0.0794 
    127 H127       34.4957  -46.9941  -50.0607 H         1 UNK         0.3016 
@<TRIPOS>BOND
     1    1    2 1    
     2    1   67 1    
     3    1   68 1    
     4    1   69 1    
     5    2    3 2    
     6    2    4 am   BACKBONE|DICT|INTERRES
     7    4    5 1    
     8    4   70 1    
     9    5    6 1    
    10    5   65 1    
    11    5   71 1    
    12    6    7 1    
    13    6   72 1    
    14    6   73 1    
    15    7    8 1    
    16    8    9 1    
    17    8   74 1    
    18    8   75 1    
    19    9   10 ar   
    20    9   14 ar   
    21   10   11 ar   
    22   10   76 1    
    23   11   12 ar   
    24   11   48 1    
    25   12   13 ar   
    26   12   77 1    
    27   13   14 ar   
    28   13   15 1    
    29   14   78 1    
    30   15   16 1    
    31   15   79 1    
    32   15   80 1    
    33   16   17 1    
    34   17   18 1    
    35   17   81 1    
    36   17   82 1    
    37   18   19 1    
    38   18   22 1    
    39   18   83 1    
    40   19   20 am   BACKBONE|DICT|INTERRES
    41   19   21 2    
    42   20   84 1    
    43   20   85 1    
    44   22   23 am   BACKBONE|DICT|INTERRES
    45   22   86 1    
    46   23   24 2    
    47   23   25 1    
    48   25   26 1    
    49   25   27 1    
    50   25   87 1    
    51   26   88 1    
    52   26   89 1    
    53   26   90 1    
    54   27   28 am   BACKBONE|DICT|INTERRES
    55   27   91 1    
    56   28   29 2    
    57   28   30 1    
    58   30   31 1    
    59   30   32 1    
    60   30   92 1    
    61   31   93 1    
    62   31   94 1    
    63   31   95 1    
    64   32   33 am   BACKBONE|DICT|INTERRES
    65   32   96 1    
    66   33   34 2    
    67   33   35 1    
    68   35   36 1    
    69   35   37 1    
    70   35   97 1    
    71   36   98 1    
    72   36   99 1    
    73   36  100 1    
    74   37   38 am   BACKBONE|DICT|INTERRES
    75   37  101 1    
    76   38   39 2    
    77   38   40 1    
    78   40   41 1    
    79   40   42 1    
    80   40  102 1    
    81   41  103 1    
    82   41  104 1    
    83   41  105 1    
    84   42   43 am   BACKBONE|DICT|INTERRES
    85   42  106 1    
    86   43   44 2    
    87   43   45 1    
    88   45   46 1    
    89   45   49 1    
    90   45  107 1    
    91   46   47 1    
    92   46  108 1    
    93   46  109 1    
    94   47   48 1    
    95   48  110 1    
    96   48  111 1    
    97   49   50 am   BACKBONE|DICT|INTERRES
    98   49  112 1    
    99   50   51 2    
   100   50   52 1    
   101   52   53 1    
   102   52   54 1    
   103   52  113 1    
   104   53  114 1    
   105   53  115 1    
   106   53  116 1    
   107   54   55 am   BACKBONE|DICT|INTERRES
   108   54  117 1    
   109   55   56 2    
   110   55   57 1    
   111   57   58 1    
   112   57   59 1    
   113   57  118 1    
   114   58  119 1    
   115   58  120 1    
   116   58  121 1    
   117   59   60 am   BACKBONE|DICT|INTERRES
   118   59  122 1    
   119   60   61 2    
   120   60   62 1    
   121   62   63 1    
   122   62   64 1    
   123   62  123 1    
   124   63  124 1    
   125   63  125 1    
   126   63  126 1    
   127   64   65 am   BACKBONE|DICT|INTERRES
   128   64  127 1    
   129   65   66 2    
@<TRIPOS>SUBSTRUCTURE
     1 UNK         1 GROUP             0       ****    0 ROOT    
