@<TRIPOS>MOLECULE
3R134
127   129    1
SMALL
USER_CHARGES


@<TRIPOS>ATOM
      1 CA         38.8153  -45.4392  -54.1394 C.3       0 UNK        -0.1968 
      2 C          37.5483  -46.2729  -54.2569 C.2       0 UNK         0.4852 
      3 O          37.5535  -47.3052  -54.9303 O.2       0 UNK        -0.5359 
      4 N          36.4638  -45.8466  -53.5961 N.am      1 UNK        -0.4300 
      5 CA         35.1389  -46.4833  -53.6009 C.3       1 UNK         0.0863 
      6 C6         34.0196  -45.4668  -53.2497 C.3       11 UNK        -0.0953 
      7 S7         33.8897  -44.1465  -54.5009 S.3       11 UNK        -0.2369 
      8 C8         32.5579  -44.7946  -55.5612 C.3       11 UNK         0.0226 
      9 C9         31.3499  -43.8702  -55.5834 C.ar      11 UNK        -0.0699 
     10 C10        30.5906  -43.6628  -54.4263 C.ar      11 UNK        -0.0804 
     11 C11        29.4584  -42.8424  -54.4623 C.ar      11 UNK        -0.0871 
     12 C12        29.1036  -42.2095  -55.6555 C.ar      11 UNK        -0.1008 
     13 C13        29.8320  -42.4375  -56.8235 C.ar      11 UNK        -0.0735 
     14 C14        30.9636  -43.2560  -56.7788 C.ar      11 UNK        -0.0945 
     15 C15        29.3743  -41.8334  -58.1407 C.3       11 UNK         0.0169 
     16 S16        28.1651  -42.9163  -58.9702 S.3       11 UNK        -0.2669 
     17 C17        26.5867  -42.4441  -58.1734 C.3       11 UNK        -0.0850 
     18 CA         26.0883  -43.4296  -57.0711 C.3       10 UNK         0.0855 
     19 C          24.7953  -42.9261  -56.3614 C.2       10 UNK         0.5543 
     20 N          23.8995  -43.8016  -55.9208 N.am      10 UNK        -0.7343 
     21 O          24.6088  -41.7248  -56.1827 O.2       10 UNK        -0.5027 
     22 N          26.0383  -44.8382  -57.4933 N.am      10 UNK        -0.4495 
     23 C          25.3313  -45.3494  -58.5096 C.2       10 UNK         0.4903 
     24 O          24.6079  -44.6848  -59.2532 O.2       10 UNK        -0.4860 
     25 CA         25.4408  -46.8740  -58.7044 C.3       9 UNK         0.0227 
     26 CB         25.0210  -47.3432  -60.1137 C.3       9 UNK        -0.1964 
     27 N          26.7626  -47.3911  -58.3332 N.am      9 UNK        -0.4231 
     28 C          27.9436  -47.1505  -58.9256 C.2       9 UNK         0.5014 
     29 O          28.0800  -46.5081  -59.9671 O.2       9 UNK        -0.5270 
     30 CA         29.1981  -47.7228  -58.2344 C.3       8 UNK         0.0284 
     31 CB         29.9410  -46.6151  -57.4711 C.3       8 UNK        -0.1977 
     32 N          28.9061  -48.8246  -57.3129 N.am      8 UNK        -0.4342 
     33 C          28.4716  -50.0352  -57.6920 C.2       8 UNK         0.5039 
     34 O          28.3637  -50.3917  -58.8657 O.2       8 UNK        -0.5547 
     35 CA         28.0539  -50.9973  -56.5717 C.3       7 UNK         0.0281 
     36 CB         29.2673  -51.7950  -56.0821 C.3       7 UNK        -0.1963 
     37 N          27.4299  -50.2938  -55.4463 N.am      7 UNK        -0.4444 
     38 C          26.1812  -49.8051  -55.4729 C.2       7 UNK         0.5104 
     39 O          25.4244  -49.9143  -56.4372 O.2       7 UNK        -0.5100 
     40 CA         25.7003  -49.0404  -54.2284 C.3       6 UNK         0.0396 
     41 CB         25.1879  -50.0173  -53.1584 C.3       6 UNK        -0.1801 
     42 N          26.7270  -48.1728  -53.6482 N.am      6 UNK        -0.4747 
     43 C          27.2453  -47.0906  -54.2483 C.2       6 UNK         0.5012 
     44 O          26.9191  -46.7086  -55.3738 O.2       6 UNK        -0.5003 
     45 CA         28.3451  -46.3352  -53.4730 C.3       5 UNK         0.0782 
     46 C46        27.7548  -45.2747  -52.5069 C.3       11 UNK        -0.0868 
     47 S47        27.1326  -43.7638  -53.3121 S.3       11 UNK        -0.2515 
     48 C48        28.5821  -42.6603  -53.2348 C.3       11 UNK         0.0199 
     49 N          29.2464  -47.2219  -52.7282 N.am      5 UNK        -0.4607 
     50 C          29.9872  -48.2270  -53.2101 C.2       4 UNK         0.5031 
     51 O          29.9751  -48.5931  -54.3886 O.2       4 UNK        -0.5119 
     52 CA         30.8793  -48.9095  -52.1573 C.3       4 UNK         0.0263 
     53 CB         30.0456  -49.6720  -51.1038 C.3       4 UNK        -0.1967 
     54 N          31.9412  -49.7402  -52.7347 N.am      4 UNK        -0.4237 
     55 C          31.8598  -50.9704  -53.2658 C.2       3 UNK         0.4908 
     56 O          30.8379  -51.6559  -53.2730 O.2       3 UNK        -0.5102 
     57 CA         33.1411  -51.5537  -53.8976 C.3       3 UNK         0.0241 
     58 CB         33.0148  -51.6010  -55.4296 C.3       3 UNK        -0.1971 
     59 N          34.3548  -50.8099  -53.5487 N.am      3 UNK        -0.4139 
     60 C          34.9994  -50.8984  -52.3768 C.2       2 UNK         0.5016 
     61 O          34.6876  -51.6807  -51.4786 O.2       2 UNK        -0.5319 
     62 CA         36.1746  -49.9272  -52.1603 C.3       2 UNK         0.0286 
     63 CB         37.5063  -50.5971  -52.5348 C.3       2 UNK        -0.1963 
     64 N          36.0436  -48.6666  -52.9023 N.am      2 UNK        -0.4790 
     65 C          35.0944  -47.7418  -52.7028 C.2       1 UNK         0.5024 
     66 O          34.2015  -47.8733  -51.8646 O.2       1 UNK        -0.4888 
     67 H67        38.6674  -44.5577  -53.5159 H         1 UNK         0.0892 
     68 H68        39.1372  -45.1064  -55.1258 H         1 UNK         0.0892 
     69 H69        39.6165  -46.0342  -53.7017 H         1 UNK         0.0892 
     70 H70        36.5284  -45.0016  -53.0463 H         1 UNK         0.3107 
     71 H71        34.9427  -46.8411  -54.6142 H         1 UNK         0.0773 
     72 H72        34.2159  -45.0039  -52.2809 H         1 UNK         0.0680 
     73 H73        33.0487  -45.9558  -53.1513 H         1 UNK         0.0680 
     74 H74        32.9599  -44.9266  -56.5668 H         1 UNK         0.0650 
     75 H75        32.2403  -45.7861  -55.2369 H         1 UNK         0.0650 
     76 H76        30.8732  -44.1546  -53.5055 H         1 UNK         0.1397 
     77 H77        28.2258  -41.5786  -55.6859 H         1 UNK         0.1363 
     78 H78        31.5279  -43.4347  -57.6838 H         1 UNK         0.1355 
     79 H79        30.2314  -41.6986  -58.8022 H         1 UNK         0.0707 
     80 H80        28.9545  -40.8386  -57.9852 H         1 UNK         0.0707 
     81 H81        25.8341  -42.3528  -58.9578 H         1 UNK         0.1034 
     82 H82        26.6926  -41.4396  -57.7612 H         1 UNK         0.1034 
     83 H83        26.8347  -43.4299  -56.2815 H         1 UNK         0.0482 
     84 H84        23.0707  -43.4700  -55.4535 H         1 UNK         0.3460 
     85 H85        24.0539  -44.7893  -56.0416 H         1 UNK         0.3460 
     86 H86        26.5448  -45.4835  -56.8950 H         1 UNK         0.2989 
     87 H87        24.7425  -47.3174  -57.9931 H         1 UNK         0.0559 
     88 H88        25.1198  -48.4236  -60.2179 H         1 UNK         0.0848 
     89 H89        25.6201  -46.8732  -60.8941 H         1 UNK         0.0848 
     90 H90        23.9784  -47.0928  -60.3131 H         1 UNK         0.0848 
     91 H91        26.7884  -47.9065  -57.4631 H         1 UNK         0.3144 
     92 H92        29.8592  -48.1031  -59.0159 H         1 UNK         0.0727 
     93 H93        30.8515  -46.9936  -57.0068 H         1 UNK         0.0790 
     94 H94        29.3215  -46.1745  -56.6895 H         1 UNK         0.0790 
     95 H95        30.2299  -45.8077  -58.1452 H         1 UNK         0.0790 
     96 H96        29.0331  -48.6444  -56.3223 H         1 UNK         0.3215 
     97 H97        27.3281  -51.7016  -56.9849 H         1 UNK         0.0863 
     98 H98        29.0008  -52.4812  -55.2782 H         1 UNK         0.0808 
     99 H99        30.0486  -51.1297  -55.7158 H         1 UNK         0.0808 
    100 H100       29.6970  -52.3886  -56.8899 H         1 UNK         0.0808 
    101 H101       28.0071  -50.1239  -54.6338 H         1 UNK         0.3118 
    102 H102       24.8653  -48.4059  -54.5340 H         1 UNK         0.0546 
    103 H103       25.9826  -50.6638  -52.7839 H         1 UNK         0.0828 
    104 H104       24.4067  -50.6628  -53.5625 H         1 UNK         0.0828 
    105 H105       24.7579  -49.4863  -52.3090 H         1 UNK         0.0828 
    106 H106       27.0651  -48.4157  -52.7283 H         1 UNK         0.3005 
    107 H107       28.9554  -45.8311  -54.2230 H         1 UNK         0.1257 
    108 H108       28.5067  -44.9693  -51.7778 H         1 UNK         0.0775 
    109 H109       26.9444  -45.7024  -51.9132 H         1 UNK         0.0775 
    110 H110       28.2323  -41.6277  -53.1895 H         1 UNK         0.0840 
    111 H111       29.1499  -42.8239  -52.3179 H         1 UNK         0.0840 
    112 H112       29.3290  -47.0156  -51.7434 H         1 UNK         0.2987 
    113 H113       31.4098  -48.1106  -51.6363 H         1 UNK         0.0785 
    114 H114       29.3715  -50.3970  -51.5609 H         1 UNK         0.0798 
    115 H115       29.4298  -48.9902  -50.5168 H         1 UNK         0.0798 
    116 H116       30.6865  -50.2065  -50.4024 H         1 UNK         0.0798 
    117 H117       32.8473  -49.2899  -52.7501 H         1 UNK         0.3079 
    118 H118       33.2474  -52.5779  -53.5332 H         1 UNK         0.0794 
    119 H119       32.8230  -50.6134  -55.8516 H         1 UNK         0.0786 
    120 H120       32.1933  -52.2518  -55.7304 H         1 UNK         0.0786 
    121 H121       33.9190  -51.9968  -55.8927 H         1 UNK         0.0786 
    122 H122       34.7025  -50.1533  -54.2326 H         1 UNK         0.3032 
    123 H123       36.1988  -49.6853  -51.0952 H         1 UNK         0.1094 
    124 H124       38.3540  -49.9531  -52.2999 H         1 UNK         0.0794 
    125 H125       37.6450  -51.5275  -51.9820 H         1 UNK         0.0794 
    126 H126       37.5525  -50.8385  -53.5976 H         1 UNK         0.0794 
    127 H127       36.7364  -48.4700  -53.6211 H         1 UNK         0.3016 
@<TRIPOS>BOND
     1    1    2 1    
     2    1   67 1    
     3    1   68 1    
     4    1   69 1    
     5    2    3 2    
     6    2    4 am   BACKBONE|DICT|INTERRES
     7    4    5 1    
     8    4   70 1    
     9    5    6 1    
    10    5   65 1    
    11    5   71 1    
    12    6    7 1    
    13    6   72 1    
    14    6   73 1    
    15    7    8 1    
    16    8    9 1    
    17    8   74 1    
    18    8   75 1    
    19    9   10 ar   
    20    9   14 ar   
    21   10   11 ar   
    22   10   76 1    
    23   11   12 ar   
    24   11   48 1    
    25   12   13 ar   
    26   12   77 1    
    27   13   14 ar   
    28   13   15 1    
    29   14   78 1    
    30   15   16 1    
    31   15   79 1    
    32   15   80 1    
    33   16   17 1    
    34   17   18 1    
    35   17   81 1    
    36   17   82 1    
    37   18   19 1    
    38   18   22 1    
    39   18   83 1    
    40   19   20 am   BACKBONE|DICT|INTERRES
    41   19   21 2    
    42   20   84 1    
    43   20   85 1    
    44   22   23 am   BACKBONE|DICT|INTERRES
    45   22   86 1    
    46   23   24 2    
    47   23   25 1    
    48   25   26 1    
    49   25   27 1    
    50   25   87 1    
    51   26   88 1    
    52   26   89 1    
    53   26   90 1    
    54   27   28 am   BACKBONE|DICT|INTERRES
    55   27   91 1    
    56   28   29 2    
    57   28   30 1    
    58   30   31 1    
    59   30   32 1    
    60   30   92 1    
    61   31   93 1    
    62   31   94 1    
    63   31   95 1    
    64   32   33 am   BACKBONE|DICT|INTERRES
    65   32   96 1    
    66   33   34 2    
    67   33   35 1    
    68   35   36 1    
    69   35   37 1    
    70   35   97 1    
    71   36   98 1    
    72   36   99 1    
    73   36  100 1    
    74   37   38 am   BACKBONE|DICT|INTERRES
    75   37  101 1    
    76   38   39 2    
    77   38   40 1    
    78   40   41 1    
    79   40   42 1    
    80   40  102 1    
    81   41  103 1    
    82   41  104 1    
    83   41  105 1    
    84   42   43 am   BACKBONE|DICT|INTERRES
    85   42  106 1    
    86   43   44 2    
    87   43   45 1    
    88   45   46 1    
    89   45   49 1    
    90   45  107 1    
    91   46   47 1    
    92   46  108 1    
    93   46  109 1    
    94   47   48 1    
    95   48  110 1    
    96   48  111 1    
    97   49   50 am   BACKBONE|DICT|INTERRES
    98   49  112 1    
    99   50   51 2    
   100   50   52 1    
   101   52   53 1    
   102   52   54 1    
   103   52  113 1    
   104   53  114 1    
   105   53  115 1    
   106   53  116 1    
   107   54   55 am   BACKBONE|DICT|INTERRES
   108   54  117 1    
   109   55   56 2    
   110   55   57 1    
   111   57   58 1    
   112   57   59 1    
   113   57  118 1    
   114   58  119 1    
   115   58  120 1    
   116   58  121 1    
   117   59   60 am   BACKBONE|DICT|INTERRES
   118   59  122 1    
   119   60   61 2    
   120   60   62 1    
   121   62   63 1    
   122   62   64 1    
   123   62  123 1    
   124   63  124 1    
   125   63  125 1    
   126   63  126 1    
   127   64   65 am   BACKBONE|DICT|INTERRES
   128   64  127 1    
   129   65   66 2    
@<TRIPOS>SUBSTRUCTURE
     1 UNK         1 GROUP             0       ****    0 ROOT    
