@<TRIPOS>MOLECULE
3R134
127   129    1
SMALL
USER_CHARGES


@<TRIPOS>ATOM
      1 CA         34.5000  -43.1919  -49.9805 C.3       0 UNK        -0.1968 
      2 C          33.9736  -44.1121  -51.0717 C.2       0 UNK         0.4852 
      3 O          34.5782  -44.2013  -52.1423 O.2       0 UNK        -0.5359 
      4 N          32.8539  -44.7998  -50.8114 N.am      1 UNK        -0.4300 
      5 CA         32.2037  -45.7336  -51.7350 C.3       1 UNK         0.0863 
      6 C6         30.6935  -45.9047  -51.4255 C.3       11 UNK        -0.0953 
      7 S7         29.7414  -44.3457  -51.4385 S.3       11 UNK        -0.2369 
      8 C8         28.7673  -44.4796  -52.9735 C.3       11 UNK         0.0226 
      9 C9         29.4827  -43.8300  -54.1471 C.ar      11 UNK        -0.0699 
     10 C10        30.5484  -44.4818  -54.7704 C.ar      11 UNK        -0.0804 
     11 C11        31.2330  -43.8806  -55.8291 C.ar      11 UNK        -0.0871 
     12 C12        30.8157  -42.6288  -56.2908 C.ar      11 UNK        -0.1008 
     13 C13        29.7391  -41.9721  -55.6871 C.ar      11 UNK        -0.0735 
     14 C14        29.0823  -42.5733  -54.6095 C.ar      11 UNK        -0.0945 
     15 C15        29.3062  -40.5976  -56.1753 C.3       11 UNK         0.0169 
     16 S16        27.6817  -40.6338  -56.9954 S.3       11 UNK        -0.2669 
     17 C17        28.0371  -41.5708  -58.5228 C.3       11 UNK        -0.0850 
     18 CA         26.9938  -42.6930  -58.7818 C.3       10 UNK         0.0855 
     19 C          27.0873  -43.2898  -60.2173 C.2       10 UNK         0.5543 
     20 N          26.7047  -44.5426  -60.4366 N.am      10 UNK        -0.7343 
     21 O          27.4978  -42.6103  -61.1551 O.2       10 UNK        -0.5027 
     22 N          27.0404  -43.7410  -57.7481 N.am      10 UNK        -0.4495 
     23 C          26.0499  -44.0410  -56.9011 C.2       10 UNK         0.4903 
     24 O          25.0025  -43.3977  -56.8082 O.2       10 UNK        -0.4860 
     25 CA         26.2594  -45.3032  -56.0376 C.3       9 UNK         0.0227 
     26 CB         24.9933  -45.7132  -55.2585 C.3       9 UNK        -0.1964 
     27 N          26.7782  -46.4606  -56.7807 N.am      9 UNK        -0.4231 
     28 C          26.3045  -46.9886  -57.9217 C.2       9 UNK         0.5014 
     29 O          25.3887  -46.5022  -58.5863 O.2       9 UNK        -0.5270 
     30 CA         26.9783  -48.2791  -58.4187 C.3       8 UNK         0.0284 
     31 CB         28.3363  -47.9653  -59.0681 C.3       8 UNK        -0.1977 
     32 N          27.1399  -49.2782  -57.3576 N.am      8 UNK        -0.4342 
     33 C          26.1244  -49.9116  -56.7491 C.2       8 UNK         0.5039 
     34 O          24.9408  -49.7665  -57.0569 O.2       8 UNK        -0.5547 
     35 CA         26.4830  -50.8636  -55.5966 C.3       7 UNK         0.0281 
     36 CB         26.7955  -52.2744  -56.1226 C.3       7 UNK        -0.1963 
     37 N          27.6135  -50.3568  -54.8168 N.am      7 UNK        -0.4444 
     38 C          27.4990  -49.4275  -53.8566 C.2       7 UNK         0.5104 
     39 O          26.4214  -48.9862  -53.4575 O.2       7 UNK        -0.5100 
     40 CA         28.8001  -48.8772  -53.2449 C.3       6 UNK         0.0396 
     41 CB         29.1681  -49.6545  -51.9727 C.3       6 UNK        -0.1801 
     42 N          29.9356  -48.8864  -54.1735 N.am      6 UNK        -0.4747 
     43 C          30.0046  -48.1445  -55.2918 C.2       6 UNK         0.5012 
     44 O          29.1558  -47.3082  -55.5943 O.2       6 UNK        -0.5003 
     45 CA         31.1528  -48.4395  -56.2830 C.3       5 UNK         0.0782 
     46 C46        32.2810  -47.3805  -56.2341 C.3       11 UNK        -0.0868 
     47 S47        31.9936  -46.0246  -57.4226 S.3       11 UNK        -0.2515 
     48 C48        32.4471  -44.5583  -56.4476 C.3       11 UNK         0.0199 
     49 N          31.6649  -49.8057  -56.1520 N.am      5 UNK        -0.4607 
     50 C          30.9384  -50.8960  -56.4392 C.2       4 UNK         0.5031 
     51 O          29.7868  -50.8328  -56.8722 O.2       4 UNK        -0.5119 
     52 CA         31.5549  -52.2791  -56.1666 C.3       4 UNK         0.0263 
     53 CB         31.9510  -52.9553  -57.4886 C.3       4 UNK        -0.1967 
     54 N          32.7128  -52.2634  -55.2682 N.am      4 UNK        -0.4237 
     55 C          32.7039  -51.8781  -53.9841 C.2       3 UNK         0.4908 
     56 O          31.6948  -51.4790  -53.4000 O.2       3 UNK        -0.5102 
     57 CA         34.0482  -51.9229  -53.2275 C.3       3 UNK         0.0241 
     58 CB         35.2351  -52.4385  -54.0755 C.3       3 UNK        -0.1971 
     59 N          34.4041  -50.6356  -52.6170 N.am      3 UNK        -0.4139 
     60 C          34.4544  -49.4365  -53.2173 C.2       2 UNK         0.5016 
     61 O          34.1269  -49.2273  -54.3885 O.2       2 UNK        -0.5319 
     62 CA         35.0261  -48.2815  -52.3761 C.3       2 UNK         0.0286 
     63 CB         36.3960  -47.8463  -52.9223 C.3       2 UNK        -0.1963 
     64 N          34.1390  -47.1185  -52.3352 N.am      2 UNK        -0.4790 
     65 C          32.9447  -47.0890  -51.7323 C.2       1 UNK         0.5024 
     66 O          32.4598  -48.0586  -51.1471 O.2       1 UNK        -0.4888 
     67 H67        35.5031  -43.4975  -49.6843 H         1 UNK         0.0892 
     68 H68        34.5496  -42.1670  -50.3470 H         1 UNK         0.0892 
     69 H69        33.8653  -43.2046  -49.0945 H         1 UNK         0.0892 
     70 H70        32.4040  -44.6961  -49.9130 H         1 UNK         0.3107 
     71 H71        32.2940  -45.3237  -52.7410 H         1 UNK         0.0773 
     72 H72        30.2535  -46.5990  -52.1385 H         1 UNK         0.0680 
     73 H73        30.5533  -46.3580  -50.4423 H         1 UNK         0.0680 
     74 H74        28.5398  -45.5203  -53.2036 H         1 UNK         0.0650 
     75 H75        27.8036  -43.9949  -52.8097 H         1 UNK         0.0650 
     76 H76        30.8478  -45.4575  -54.4233 H         1 UNK         0.1397 
     77 H77        31.3388  -42.1571  -57.1116 H         1 UNK         0.1363 
     78 H78        28.2573  -42.0599  -54.1347 H         1 UNK         0.1355 
     79 H79        29.2536  -39.9185  -55.3232 H         1 UNK         0.0707 
     80 H80        30.0441  -40.1726  -56.8579 H         1 UNK         0.0707 
     81 H81        28.0395  -40.8481  -59.3407 H         1 UNK         0.1034 
     82 H82        29.0431  -41.9907  -58.4915 H         1 UNK         0.1034 
     83 H83        26.0123  -42.2163  -58.7682 H         1 UNK         0.0482 
     84 H84        26.7619  -44.9136  -61.3715 H         1 UNK         0.3460 
     85 H85        26.2834  -45.0965  -59.6989 H         1 UNK         0.3460 
     86 H86        27.8569  -44.3347  -57.7636 H         1 UNK         0.2989 
     87 H87        27.0266  -45.0454  -55.3074 H         1 UNK         0.0559 
     88 H88        24.6445  -44.9020  -54.6182 H         1 UNK         0.0848 
     89 H89        25.1860  -46.5724  -54.6156 H         1 UNK         0.0848 
     90 H90        24.1761  -45.9756  -55.9314 H         1 UNK         0.0848 
     91 H91        27.5958  -46.9011  -56.3579 H         1 UNK         0.3144 
     92 H92        26.3351  -48.7191  -59.1840 H         1 UNK         0.0727 
     93 H93        28.9874  -47.4020  -58.4001 H         1 UNK         0.0790 
     94 H94        28.2012  -47.3582  -59.9643 H         1 UNK         0.0790 
     95 H95        28.8588  -48.8739  -59.3683 H         1 UNK         0.0790 
     96 H96        28.0846  -49.5188  -57.0835 H         1 UNK         0.3215 
     97 H97        25.6099  -50.9395  -54.9442 H         1 UNK         0.0863 
     98 H98        27.0428  -52.9560  -55.3087 H         1 UNK         0.0808 
     99 H99        27.6268  -52.2769  -56.8274 H         1 UNK         0.0808 
    100 H100       25.9321  -52.6915  -56.6425 H         1 UNK         0.0808 
    101 H101       28.5370  -50.6438  -55.1149 H         1 UNK         0.3118 
    102 H102       28.5981  -47.8438  -52.9650 H         1 UNK         0.0546 
    103 H103       29.3675  -50.7054  -52.1851 H         1 UNK         0.0828 
    104 H104       28.3570  -49.6173  -51.2444 H         1 UNK         0.0828 
    105 H105       30.0527  -49.2372  -51.4924 H         1 UNK         0.0828 
    106 H106       30.6590  -49.5754  -53.9968 H         1 UNK         0.3005 
    107 H107       30.7078  -48.4022  -57.2784 H         1 UNK         0.1257 
    108 H108       32.4373  -47.0037  -55.2220 H         1 UNK         0.0775 
    109 H109       33.2330  -47.8291  -56.5228 H         1 UNK         0.0775 
    110 H110       33.1640  -44.8206  -55.6682 H         1 UNK         0.0840 
    111 H111       32.9702  -43.8638  -57.1067 H         1 UNK         0.0840 
    112 H112       32.5891  -49.9048  -55.7456 H         1 UNK         0.2987 
    113 H113       30.7791  -52.8837  -55.6922 H         1 UNK         0.0785 
    114 H114       31.0998  -53.0120  -58.1690 H         1 UNK         0.0798 
    115 H115       32.2993  -53.9754  -57.3255 H         1 UNK         0.0798 
    116 H116       32.7417  -52.4065  -58.0020 H         1 UNK         0.0798 
    117 H117       33.5941  -52.5546  -55.6661 H         1 UNK         0.3079 
    118 H118       33.9014  -52.6242  -52.4045 H         1 UNK         0.0794 
    119 H119       36.1422  -52.5034  -53.4741 H         1 UNK         0.0786 
    120 H120       35.4525  -51.7825  -54.9201 H         1 UNK         0.0786 
    121 H121       35.0463  -53.4407  -54.4633 H         1 UNK         0.0786 
    122 H122       34.6490  -50.6826  -51.6377 H         1 UNK         0.3032 
    123 H123       35.1659  -48.6267  -51.3488 H         1 UNK         0.1094 
    124 H124       36.3193  -47.4590  -53.9395 H         1 UNK         0.0794 
    125 H125       36.8444  -47.0707  -52.3007 H         1 UNK         0.0794 
    126 H126       37.0924  -48.6858  -52.9451 H         1 UNK         0.0794 
    127 H127       34.4911  -46.2533  -52.7299 H         1 UNK         0.3016 
@<TRIPOS>BOND
     1    1    2 1    
     2    1   67 1    
     3    1   68 1    
     4    1   69 1    
     5    2    3 2    
     6    2    4 am   BACKBONE|DICT|INTERRES
     7    4    5 1    
     8    4   70 1    
     9    5    6 1    
    10    5   65 1    
    11    5   71 1    
    12    6    7 1    
    13    6   72 1    
    14    6   73 1    
    15    7    8 1    
    16    8    9 1    
    17    8   74 1    
    18    8   75 1    
    19    9   10 ar   
    20    9   14 ar   
    21   10   11 ar   
    22   10   76 1    
    23   11   12 ar   
    24   11   48 1    
    25   12   13 ar   
    26   12   77 1    
    27   13   14 ar   
    28   13   15 1    
    29   14   78 1    
    30   15   16 1    
    31   15   79 1    
    32   15   80 1    
    33   16   17 1    
    34   17   18 1    
    35   17   81 1    
    36   17   82 1    
    37   18   19 1    
    38   18   22 1    
    39   18   83 1    
    40   19   20 am   BACKBONE|DICT|INTERRES
    41   19   21 2    
    42   20   84 1    
    43   20   85 1    
    44   22   23 am   BACKBONE|DICT|INTERRES
    45   22   86 1    
    46   23   24 2    
    47   23   25 1    
    48   25   26 1    
    49   25   27 1    
    50   25   87 1    
    51   26   88 1    
    52   26   89 1    
    53   26   90 1    
    54   27   28 am   BACKBONE|DICT|INTERRES
    55   27   91 1    
    56   28   29 2    
    57   28   30 1    
    58   30   31 1    
    59   30   32 1    
    60   30   92 1    
    61   31   93 1    
    62   31   94 1    
    63   31   95 1    
    64   32   33 am   BACKBONE|DICT|INTERRES
    65   32   96 1    
    66   33   34 2    
    67   33   35 1    
    68   35   36 1    
    69   35   37 1    
    70   35   97 1    
    71   36   98 1    
    72   36   99 1    
    73   36  100 1    
    74   37   38 am   BACKBONE|DICT|INTERRES
    75   37  101 1    
    76   38   39 2    
    77   38   40 1    
    78   40   41 1    
    79   40   42 1    
    80   40  102 1    
    81   41  103 1    
    82   41  104 1    
    83   41  105 1    
    84   42   43 am   BACKBONE|DICT|INTERRES
    85   42  106 1    
    86   43   44 2    
    87   43   45 1    
    88   45   46 1    
    89   45   49 1    
    90   45  107 1    
    91   46   47 1    
    92   46  108 1    
    93   46  109 1    
    94   47   48 1    
    95   48  110 1    
    96   48  111 1    
    97   49   50 am   BACKBONE|DICT|INTERRES
    98   49  112 1    
    99   50   51 2    
   100   50   52 1    
   101   52   53 1    
   102   52   54 1    
   103   52  113 1    
   104   53  114 1    
   105   53  115 1    
   106   53  116 1    
   107   54   55 am   BACKBONE|DICT|INTERRES
   108   54  117 1    
   109   55   56 2    
   110   55   57 1    
   111   57   58 1    
   112   57   59 1    
   113   57  118 1    
   114   58  119 1    
   115   58  120 1    
   116   58  121 1    
   117   59   60 am   BACKBONE|DICT|INTERRES
   118   59  122 1    
   119   60   61 2    
   120   60   62 1    
   121   62   63 1    
   122   62   64 1    
   123   62  123 1    
   124   63  124 1    
   125   63  125 1    
   126   63  126 1    
   127   64   65 am   BACKBONE|DICT|INTERRES
   128   64  127 1    
   129   65   66 2    
@<TRIPOS>SUBSTRUCTURE
     1 UNK         1 GROUP             0       ****    0 ROOT    
