@<TRIPOS>MOLECULE
3R134
127   129    1
SMALL
USER_CHARGES


@<TRIPOS>ATOM
      1 CA         32.2872  -49.3833  -58.0924 C.3       0 UNK        -0.1968 
      2 C          32.6820  -48.9449  -56.6913 C.2       0 UNK         0.4852 
      3 O          32.5519  -49.7295  -55.7520 O.2       0 UNK        -0.5359 
      4 N          33.1836  -47.7085  -56.5512 N.am      1 UNK        -0.4300 
      5 CA         33.5329  -47.0335  -55.2894 C.3       1 UNK         0.0863 
      6 C6         34.1644  -45.6378  -55.5305 C.3       11 UNK        -0.0953 
      7 S7         33.2492  -44.5977  -56.7170 S.3       11 UNK        -0.2369 
      8 C8         33.2132  -42.9927  -55.8613 C.3       11 UNK         0.0226 
      9 C9         31.9620  -42.8425  -55.0119 C.ar      11 UNK        -0.0699 
     10 C10        32.0061  -43.0104  -53.6251 C.ar      11 UNK        -0.0804 
     11 C11        30.8508  -42.8342  -52.8561 C.ar      11 UNK        -0.0871 
     12 C12        29.6448  -42.5092  -53.4873 C.ar      11 UNK        -0.1008 
     13 C13        29.5848  -42.3474  -54.8748 C.ar      11 UNK        -0.0735 
     14 C14        30.7548  -42.5026  -55.6261 C.ar      11 UNK        -0.0945 
     15 C15        28.2637  -41.9592  -55.5358 C.3       11 UNK         0.0169 
     16 S16        28.0069  -42.7569  -57.1544 S.3       11 UNK        -0.2669 
     17 C17        26.3745  -42.1001  -57.6445 C.3       11 UNK        -0.0850 
     18 CA         25.2564  -43.1837  -57.6216 C.3       10 UNK         0.0855 
     19 C          23.8553  -42.6042  -57.9823 C.2       10 UNK         0.5543 
     20 N          22.9837  -43.3510  -58.6492 N.am      10 UNK        -0.7343 
     21 O          23.5380  -41.4716  -57.6262 O.2       10 UNK        -0.5027 
     22 N          25.6274  -44.4109  -58.3496 N.am      10 UNK        -0.4495 
     23 C          25.9373  -44.5170  -59.6468 C.2       10 UNK         0.4903 
     24 O          25.8719  -43.5841  -60.4491 O.2       10 UNK        -0.4860 
     25 CA         26.4269  -45.9050  -60.1111 C.3       9 UNK         0.0227 
     26 CB         26.7208  -45.9540  -61.6227 C.3       9 UNK        -0.1964 
     27 N          27.6199  -46.3524  -59.3803 N.am      9 UNK        -0.4231 
     28 C          27.6296  -46.8336  -58.1301 C.2       9 UNK         0.5014 
     29 O          26.6185  -46.9155  -57.4261 O.2       9 UNK        -0.5270 
     30 CA         28.9967  -47.2700  -57.5686 C.3       8 UNK         0.0284 
     31 CB         29.7021  -46.0891  -56.8811 C.3       8 UNK        -0.1977 
     32 N          28.8519  -48.3604  -56.6035 N.am      8 UNK        -0.4342 
     33 C          28.4042  -49.5905  -56.8927 C.2       8 UNK         0.5039 
     34 O          28.2207  -50.0006  -58.0401 O.2       8 UNK        -0.5547 
     35 CA         28.0902  -50.5176  -55.7075 C.3       7 UNK         0.0281 
     36 CB         29.2808  -51.4425  -55.4067 C.3       7 UNK        -0.1963 
     37 N          27.7284  -49.7593  -54.5053 N.am      7 UNK        -0.4444 
     38 C          26.4894  -49.3174  -54.2378 C.2       7 UNK         0.5104 
     39 O          25.5106  -49.5718  -54.9402 O.2       7 UNK        -0.5100 
     40 CA         26.2850  -48.4707  -52.9653 C.3       6 UNK         0.0396 
     41 CB         25.6705  -49.3305  -51.8487 C.3       6 UNK        -0.1801 
     42 N          27.5187  -47.8598  -52.4666 N.am      6 UNK        -0.4747 
     43 C          28.0957  -46.7594  -52.9740 C.2       6 UNK         0.5012 
     44 O          27.5967  -46.0800  -53.8688 O.2       6 UNK        -0.5003 
     45 CA         29.4839  -46.3783  -52.4100 C.3       5 UNK         0.0782 
     46 C46        29.3469  -45.3120  -51.2984 C.3       11 UNK        -0.0868 
     47 S47        30.9766  -44.6807  -50.7743 S.3       11 UNK        -0.2515 
     48 C48        30.9141  -42.9516  -51.3391 C.3       11 UNK         0.0199 
     49 N          30.2340  -47.5526  -51.9380 N.am      5 UNK        -0.4607 
     50 C          30.6165  -48.5708  -52.7146 C.2       4 UNK         0.5031 
     51 O          30.4193  -48.6047  -53.9291 O.2       4 UNK        -0.5119 
     52 CA         31.1795  -49.7979  -51.9945 C.3       4 UNK         0.0263 
     53 CB         30.0097  -50.6715  -51.4880 C.3       4 UNK        -0.1967 
     54 N          32.0437  -50.5528  -52.9011 N.am      4 UNK        -0.4237 
     55 C          32.8073  -51.5967  -52.5464 C.2       3 UNK         0.4908 
     56 O          32.8509  -52.0662  -51.4084 O.2       3 UNK        -0.5102 
     57 CA         33.7114  -52.1977  -53.6299 C.3       3 UNK         0.0241 
     58 CB         32.8976  -52.9234  -54.7156 C.3       3 UNK        -0.1971 
     59 N          34.5364  -51.1480  -54.2229 N.am      3 UNK        -0.4139 
     60 C          35.7009  -50.7285  -53.7063 C.2       2 UNK         0.5016 
     61 O          36.2666  -51.2757  -52.7584 O.2       2 UNK        -0.5319 
     62 CA         36.3551  -49.4880  -54.3407 C.3       2 UNK         0.0286 
     63 CB         37.4378  -49.9069  -55.3486 C.3       2 UNK        -0.1963 
     64 N          35.4023  -48.5968  -55.0051 N.am      2 UNK        -0.4790 
     65 C          34.4753  -47.8531  -54.3820 C.2       1 UNK         0.5024 
     66 O          34.3456  -47.8004  -53.1589 O.2       1 UNK        -0.4888 
     67 H67        32.9406  -50.1866  -58.4308 H         1 UNK         0.0892 
     68 H68        31.2634  -49.7560  -58.0914 H         1 UNK         0.0892 
     69 H69        32.3490  -48.5649  -58.8092 H         1 UNK         0.0892 
     70 H70        33.2705  -47.1216  -57.3690 H         1 UNK         0.3107 
     71 H71        32.5977  -46.8969  -54.7422 H         1 UNK         0.0773 
     72 H72        34.2511  -45.1079  -54.5801 H         1 UNK         0.0680 
     73 H73        35.1815  -45.7352  -55.9158 H         1 UNK         0.0680 
     74 H74        33.2329  -42.2013  -56.6121 H         1 UNK         0.0650 
     75 H75        34.1153  -42.8588  -55.2626 H         1 UNK         0.0650 
     76 H76        32.9399  -43.2620  -53.1410 H         1 UNK         0.1397 
     77 H77        28.7514  -42.3659  -52.8949 H         1 UNK         0.1363 
     78 H78        30.7320  -42.3613  -56.6977 H         1 UNK         0.1355 
     79 H79        27.4260  -42.2217  -54.8875 H         1 UNK         0.0707 
     80 H80        28.2418  -40.8759  -55.6614 H         1 UNK         0.0707 
     81 H81        26.1123  -41.2676  -56.9892 H         1 UNK         0.1034 
     82 H82        26.4669  -41.6711  -58.6435 H         1 UNK         0.1034 
     83 H83        25.1540  -43.5028  -56.5838 H         1 UNK         0.0482 
     84 H84        23.2316  -44.2841  -58.9370 H         1 UNK         0.3460 
     85 H85        22.0751  -42.9755  -58.8708 H         1 UNK         0.3460 
     86 H86        25.7520  -45.2440  -57.7800 H         1 UNK         0.2989 
     87 H87        25.6173  -46.6107  -59.9132 H         1 UNK         0.0559 
     88 H88        25.8410  -45.6690  -62.2014 H         1 UNK         0.0848 
     89 H89        27.0018  -46.9580  -61.9411 H         1 UNK         0.0848 
     90 H90        27.5274  -45.2744  -61.9008 H         1 UNK         0.0848 
     91 H91        28.4987  -46.2717  -59.8716 H         1 UNK         0.3144 
     92 H92        29.6216  -47.6284  -58.3888 H         1 UNK         0.0727 
     93 H93        29.0801  -45.6444  -56.1030 H         1 UNK         0.0790 
     94 H94        29.9347  -45.2993  -57.5963 H         1 UNK         0.0790 
     95 H95        30.6404  -46.3940  -56.4194 H         1 UNK         0.0790 
     96 H96        29.0163  -48.1322  -55.6322 H         1 UNK         0.3215 
     97 H97        27.2468  -51.1478  -55.9987 H         1 UNK         0.0863 
     98 H98        30.1745  -50.8795  -55.1428 H         1 UNK         0.0808 
     99 H99        29.5305  -52.0485  -56.2786 H         1 UNK         0.0808 
    100 H100       29.0589  -52.1278  -54.5890 H         1 UNK         0.0808 
    101 H101       28.4957  -49.4589  -53.9182 H         1 UNK         0.3118 
    102 H102       25.5768  -47.6760  -53.2101 H         1 UNK         0.0546 
    103 H103       26.3314  -50.1471  -51.5553 H         1 UNK         0.0828 
    104 H104       24.7286  -49.7755  -52.1728 H         1 UNK         0.0828 
    105 H105       25.4554  -48.7352  -50.9611 H         1 UNK         0.0828 
    106 H106       27.9884  -48.3372  -51.7115 H         1 UNK         0.3005 
    107 H107       30.0441  -45.9392  -53.2400 H         1 UNK         0.1257 
    108 H108       28.8436  -45.7296  -50.4243 H         1 UNK         0.0775 
    109 H109       28.7239  -44.4803  -51.6309 H         1 UNK         0.0775 
    110 H110       30.0627  -42.4510  -50.8749 H         1 UNK         0.0840 
    111 H111       31.8017  -42.4323  -50.9748 H         1 UNK         0.0840 
    112 H112       30.4330  -47.5816  -50.9482 H         1 UNK         0.2987 
    113 H113       31.7821  -49.4591  -51.1493 H         1 UNK         0.0785 
    114 H114       29.3290  -50.0986  -50.8575 H         1 UNK         0.0798 
    115 H115       30.3583  -51.5082  -50.8836 H         1 UNK         0.0798 
    116 H116       29.4262  -51.0812  -52.3128 H         1 UNK         0.0798 
    117 H117       32.0748  -50.2025  -53.8581 H         1 UNK         0.3079 
    118 H118       34.3573  -52.9402  -53.1556 H         1 UNK         0.0794 
    119 H119       33.5527  -53.3922  -55.4499 H         1 UNK         0.0786 
    120 H120       32.2275  -52.2522  -55.2509 H         1 UNK         0.0786 
    121 H121       32.2843  -53.7120  -54.2780 H         1 UNK         0.0786 
    122 H122       34.0966  -50.5966  -54.9544 H         1 UNK         0.3032 
    123 H123       36.8340  -48.9282  -53.5339 H         1 UNK         0.1094 
    124 H124       37.0157  -50.4594  -56.1891 H         1 UNK         0.0794 
    125 H125       37.9676  -49.0409  -55.7460 H         1 UNK         0.0794 
    126 H126       38.1818  -50.5504  -54.8767 H         1 UNK         0.0794 
    127 H127       35.4261  -48.5748  -56.0146 H         1 UNK         0.3016 
@<TRIPOS>BOND
     1    1    2 1    
     2    1   67 1    
     3    1   68 1    
     4    1   69 1    
     5    2    3 2    
     6    2    4 am   BACKBONE|DICT|INTERRES
     7    4    5 1    
     8    4   70 1    
     9    5    6 1    
    10    5   65 1    
    11    5   71 1    
    12    6    7 1    
    13    6   72 1    
    14    6   73 1    
    15    7    8 1    
    16    8    9 1    
    17    8   74 1    
    18    8   75 1    
    19    9   10 ar   
    20    9   14 ar   
    21   10   11 ar   
    22   10   76 1    
    23   11   12 ar   
    24   11   48 1    
    25   12   13 ar   
    26   12   77 1    
    27   13   14 ar   
    28   13   15 1    
    29   14   78 1    
    30   15   16 1    
    31   15   79 1    
    32   15   80 1    
    33   16   17 1    
    34   17   18 1    
    35   17   81 1    
    36   17   82 1    
    37   18   19 1    
    38   18   22 1    
    39   18   83 1    
    40   19   20 am   BACKBONE|DICT|INTERRES
    41   19   21 2    
    42   20   84 1    
    43   20   85 1    
    44   22   23 am   BACKBONE|DICT|INTERRES
    45   22   86 1    
    46   23   24 2    
    47   23   25 1    
    48   25   26 1    
    49   25   27 1    
    50   25   87 1    
    51   26   88 1    
    52   26   89 1    
    53   26   90 1    
    54   27   28 am   BACKBONE|DICT|INTERRES
    55   27   91 1    
    56   28   29 2    
    57   28   30 1    
    58   30   31 1    
    59   30   32 1    
    60   30   92 1    
    61   31   93 1    
    62   31   94 1    
    63   31   95 1    
    64   32   33 am   BACKBONE|DICT|INTERRES
    65   32   96 1    
    66   33   34 2    
    67   33   35 1    
    68   35   36 1    
    69   35   37 1    
    70   35   97 1    
    71   36   98 1    
    72   36   99 1    
    73   36  100 1    
    74   37   38 am   BACKBONE|DICT|INTERRES
    75   37  101 1    
    76   38   39 2    
    77   38   40 1    
    78   40   41 1    
    79   40   42 1    
    80   40  102 1    
    81   41  103 1    
    82   41  104 1    
    83   41  105 1    
    84   42   43 am   BACKBONE|DICT|INTERRES
    85   42  106 1    
    86   43   44 2    
    87   43   45 1    
    88   45   46 1    
    89   45   49 1    
    90   45  107 1    
    91   46   47 1    
    92   46  108 1    
    93   46  109 1    
    94   47   48 1    
    95   48  110 1    
    96   48  111 1    
    97   49   50 am   BACKBONE|DICT|INTERRES
    98   49  112 1    
    99   50   51 2    
   100   50   52 1    
   101   52   53 1    
   102   52   54 1    
   103   52  113 1    
   104   53  114 1    
   105   53  115 1    
   106   53  116 1    
   107   54   55 am   BACKBONE|DICT|INTERRES
   108   54  117 1    
   109   55   56 2    
   110   55   57 1    
   111   57   58 1    
   112   57   59 1    
   113   57  118 1    
   114   58  119 1    
   115   58  120 1    
   116   58  121 1    
   117   59   60 am   BACKBONE|DICT|INTERRES
   118   59  122 1    
   119   60   61 2    
   120   60   62 1    
   121   62   63 1    
   122   62   64 1    
   123   62  123 1    
   124   63  124 1    
   125   63  125 1    
   126   63  126 1    
   127   64   65 am   BACKBONE|DICT|INTERRES
   128   64  127 1    
   129   65   66 2    
@<TRIPOS>SUBSTRUCTURE
     1 UNK         1 GROUP             0       ****    0 ROOT    
