@<TRIPOS>MOLECULE
3R134
127   129    1
SMALL
USER_CHARGES


@<TRIPOS>ATOM
      1 CA         32.8233  -46.1619  -50.7485 C.3       0 UNK        -0.1968 
      2 C          34.1283  -45.8187  -51.4525 C.2       0 UNK         0.4852 
      3 O          34.8769  -44.9666  -50.9710 O.2       0 UNK        -0.5359 
      4 N          34.3928  -46.4764  -52.5856 N.am      1 UNK        -0.4300 
      5 CA         35.5957  -46.3289  -53.4082 C.3       1 UNK         0.0863 
      6 C6         35.2503  -45.9272  -54.8731 C.3       11 UNK        -0.0953 
      7 S7         34.2166  -44.4299  -54.9792 S.3       11 UNK        -0.2369 
      8 C8         32.5921  -45.1883  -55.2927 C.3       11 UNK         0.0226 
      9 C9         31.4671  -44.2224  -54.9699 C.ar      11 UNK        -0.0699 
     10 C10        30.9585  -44.1551  -53.6712 C.ar      11 UNK        -0.0804 
     11 C11        29.9097  -43.2832  -53.3582 C.ar      11 UNK        -0.0871 
     12 C12        29.3821  -42.4638  -54.3624 C.ar      11 UNK        -0.1008 
     13 C13        29.8997  -42.5067  -55.6614 C.ar      11 UNK        -0.0735 
     14 C14        30.9386  -43.3928  -55.9605 C.ar      11 UNK        -0.0945 
     15 C15        29.3707  -41.5694  -56.7370 C.3       11 UNK         0.0169 
     16 S16        28.4961  -42.4670  -58.0535 S.3       11 UNK        -0.2669 
     17 C17        26.9450  -42.9270  -57.2024 C.3       11 UNK        -0.0850 
     18 CA         25.8369  -43.4262  -58.1681 C.3       10 UNK         0.0855 
     19 C          25.2350  -42.2730  -59.0231 C.2       10 UNK         0.5543 
     20 N          24.3569  -41.4690  -58.4384 N.am      10 UNK        -0.7343 
     21 O          25.5717  -42.0810  -60.1905 O.2       10 UNK        -0.5027 
     22 N          26.3159  -44.5706  -58.9523 N.am      10 UNK        -0.4495 
     23 C          25.5769  -45.3549  -59.7453 C.2       10 UNK         0.4903 
     24 O          24.3617  -45.2332  -59.9042 O.2       10 UNK        -0.4860 
     25 CA         26.3239  -46.4917  -60.4700 C.3       9 UNK         0.0227 
     26 CB         26.7784  -46.0296  -61.8641 C.3       9 UNK        -0.1964 
     27 N          27.4806  -47.0094  -59.7252 N.am      9 UNK        -0.4231 
     28 C          27.4020  -47.6331  -58.5409 C.2       9 UNK         0.5014 
     29 O          26.3391  -47.8398  -57.9499 O.2       9 UNK        -0.5270 
     30 CA         28.7394  -48.0669  -57.9074 C.3       8 UNK         0.0284 
     31 CB         29.4206  -46.8724  -57.2138 C.3       8 UNK        -0.1977 
     32 N          28.5541  -49.1337  -56.9225 N.am      8 UNK        -0.4342 
     33 C          28.1128  -50.3713  -57.1878 C.2       8 UNK         0.5039 
     34 O          27.9824  -50.8271  -58.3253 O.2       8 UNK        -0.5547 
     35 CA         27.7233  -51.2372  -55.9789 C.3       7 UNK         0.0281 
     36 CB         28.9375  -52.0064  -55.4352 C.3       7 UNK        -0.1963 
     37 N          27.1361  -50.4223  -54.9115 N.am      7 UNK        -0.4444 
     38 C          25.8410  -50.0807  -54.8448 C.2       7 UNK         0.5104 
     39 O          24.9842  -50.4989  -55.6242 O.2       7 UNK        -0.5100 
     40 CA         25.4108  -49.1355  -53.7062 C.3       6 UNK         0.0396 
     41 CB         24.7485  -49.9360  -52.5729 C.3       6 UNK        -0.1801 
     42 N          26.5188  -48.3549  -53.1502 N.am      6 UNK        -0.4747 
     43 C          27.0154  -47.2309  -53.6898 C.2       6 UNK         0.5012 
     44 O          26.5489  -46.6847  -54.6879 O.2       6 UNK        -0.5003 
     45 CA         28.2558  -46.6206  -53.0004 C.3       5 UNK         0.0782 
     46 C46        27.8093  -45.5310  -51.9928 C.3       11 UNK        -0.0868 
     47 S47        29.1972  -44.7761  -51.0812 S.3       11 UNK        -0.2515 
     48 C48        29.3798  -43.1715  -51.9308 C.3       11 UNK         0.0199 
     49 N          29.1270  -47.6325  -52.3802 N.am      5 UNK        -0.4607 
     50 C          29.7251  -48.6379  -53.0308 C.2       4 UNK         0.5031 
     51 O          29.5685  -48.8567  -54.2333 O.2       4 UNK        -0.5119 
     52 CA         30.5543  -49.6080  -52.1718 C.3       4 UNK         0.0263 
     53 CB         29.6225  -50.6049  -51.4617 C.3       4 UNK        -0.1967 
     54 N          31.5407  -50.3637  -52.9493 N.am      4 UNK        -0.4237 
     55 C          32.6020  -49.8316  -53.5663 C.2       3 UNK         0.4908 
     56 O          32.8843  -48.6289  -53.5374 O.2       3 UNK        -0.5102 
     57 CA         33.5015  -50.8098  -54.3382 C.3       3 UNK         0.0241 
     58 CB         32.8655  -51.2065  -55.6815 C.3       3 UNK        -0.1971 
     59 N          34.7735  -50.1452  -54.5937 N.am      3 UNK        -0.4139 
     60 C          35.9994  -50.6415  -54.3882 C.2       2 UNK         0.5016 
     61 O          36.2261  -51.8108  -54.0747 O.2       2 UNK        -0.5319 
     62 CA         37.1767  -49.6547  -54.5464 C.3       2 UNK         0.0286 
     63 CB         37.8840  -49.8699  -55.8944 C.3       2 UNK        -0.1963 
     64 N          36.7490  -48.2528  -54.4455 N.am      2 UNK        -0.4790 
     65 C          36.3642  -47.6637  -53.3026 C.2       1 UNK         0.5024 
     66 O          36.5486  -48.1733  -52.1948 O.2       1 UNK        -0.4888 
     67 H67        33.0238  -46.7295  -49.8404 H         1 UNK         0.0892 
     68 H68        32.2934  -45.2507  -50.4719 H         1 UNK         0.0892 
     69 H69        32.1650  -46.7533  -51.3845 H         1 UNK         0.0892 
     70 H70        33.7608  -47.2164  -52.8919 H         1 UNK         0.3107 
     71 H71        36.2493  -45.5602  -52.9914 H         1 UNK         0.0773 
     72 H72        36.1644  -45.7267  -55.4348 H         1 UNK         0.0680 
     73 H73        34.7363  -46.7364  -55.3956 H         1 UNK         0.0680 
     74 H74        32.4767  -46.0900  -54.6894 H         1 UNK         0.0650 
     75 H75        32.5363  -45.5070  -56.3347 H         1 UNK         0.0650 
     76 H76        31.3866  -44.7821  -52.9026 H         1 UNK         0.1397 
     77 H77        28.5845  -41.7721  -54.1276 H         1 UNK         0.1363 
     78 H78        31.3402  -43.4291  -56.9641 H         1 UNK         0.1355 
     79 H79        30.2100  -41.0310  -57.1797 H         1 UNK         0.0707 
     80 H80        28.7129  -40.8098  -56.3117 H         1 UNK         0.0707 
     81 H81        27.1764  -43.7097  -56.4772 H         1 UNK         0.1034 
     82 H82        26.5877  -42.0795  -56.6144 H         1 UNK         0.1034 
     83 H83        25.0215  -43.8105  -57.5518 H         1 UNK         0.0482 
     84 H84        24.0718  -41.6116  -57.4820 H         1 UNK         0.3460 
     85 H85        23.9620  -40.7081  -58.9691 H         1 UNK         0.3460 
     86 H86        27.3114  -44.7281  -58.9179 H         1 UNK         0.2989 
     87 H87        25.6190  -47.3158  -60.5989 H         1 UNK         0.0559 
     88 H88        27.5043  -45.2174  -61.8050 H         1 UNK         0.0848 
     89 H89        25.9319  -45.6653  -62.4482 H         1 UNK         0.0848 
     90 H90        27.2298  -46.8461  -62.4279 H         1 UNK         0.0848 
     91 H91        28.3892  -46.8777  -60.1469 H         1 UNK         0.3144 
     92 H92        29.3946  -48.4453  -58.6945 H         1 UNK         0.0727 
     93 H93        30.3595  -47.1671  -56.7438 H         1 UNK         0.0790 
     94 H94        28.7841  -46.4401  -56.4404 H         1 UNK         0.0790 
     95 H95        29.6506  -46.0778  -57.9246 H         1 UNK         0.0790 
     96 H96        28.7008  -48.8807  -55.9500 H         1 UNK         0.3215 
     97 H97        26.9875  -51.9700  -56.3181 H         1 UNK         0.0863 
     98 H98        28.6550  -52.6628  -54.6121 H         1 UNK         0.0808 
     99 H99        29.7130  -51.3319  -55.0760 H         1 UNK         0.0808 
    100 H100       29.3816  -52.6308  -56.2115 H         1 UNK         0.0808 
    101 H101       27.7858  -49.9803  -54.2747 H         1 UNK         0.3118 
    102 H102       24.6666  -48.4480  -54.1141 H         1 UNK         0.0546 
    103 H103       23.8957  -50.5058  -52.9447 H         1 UNK         0.0828 
    104 H104       24.3771  -49.2788  -51.7865 H         1 UNK         0.0828 
    105 H105       25.4411  -50.6464  -52.1196 H         1 UNK         0.0828 
    106 H106       26.9545  -48.7140  -52.3130 H         1 UNK         0.3005 
    107 H107       28.8402  -46.1380  -53.7871 H         1 UNK         0.1257 
    108 H108       27.1270  -45.9532  -51.2524 H         1 UNK         0.0775 
    109 H109       27.2485  -44.7461  -52.5045 H         1 UNK         0.0775 
    110 H110       28.4206  -42.6516  -51.9113 H         1 UNK         0.0840 
    111 H111       30.0727  -42.5548  -51.3571 H         1 UNK         0.0840 
    112 H112       29.2900  -47.5174  -51.3901 H         1 UNK         0.2987 
    113 H113       31.0925  -49.0286  -51.4190 H         1 UNK         0.0785 
    114 H114       28.8976  -50.0903  -50.8296 H         1 UNK         0.0798 
    115 H115       30.1837  -51.2802  -50.8154 H         1 UNK         0.0798 
    116 H116       29.0615  -51.2127  -52.1733 H         1 UNK         0.0798 
    117 H117       31.3748  -51.3549  -53.0415 H         1 UNK         0.3079 
    118 H118       33.6587  -51.6994  -53.7244 H         1 UNK         0.0794 
    119 H119       32.5796  -50.3324  -56.2688 H         1 UNK         0.0786 
    120 H120       31.9705  -51.8084  -55.5292 H         1 UNK         0.0786 
    121 H121       33.5516  -51.8032  -56.2831 H         1 UNK         0.0786 
    122 H122       34.6873  -49.1560  -54.7783 H         1 UNK         0.3032 
    123 H123       37.8891  -49.8638  -53.7448 H         1 UNK         0.1094 
    124 H124       37.2183  -49.6785  -56.7370 H         1 UNK         0.0794 
    125 H125       38.7522  -49.2183  -55.9958 H         1 UNK         0.0794 
    126 H126       38.2398  -50.8970  -55.9876 H         1 UNK         0.0794 
    127 H127       36.6100  -47.7608  -55.3169 H         1 UNK         0.3016 
@<TRIPOS>BOND
     1    1    2 1    
     2    1   67 1    
     3    1   68 1    
     4    1   69 1    
     5    2    3 2    
     6    2    4 am   BACKBONE|DICT|INTERRES
     7    4    5 1    
     8    4   70 1    
     9    5    6 1    
    10    5   65 1    
    11    5   71 1    
    12    6    7 1    
    13    6   72 1    
    14    6   73 1    
    15    7    8 1    
    16    8    9 1    
    17    8   74 1    
    18    8   75 1    
    19    9   10 ar   
    20    9   14 ar   
    21   10   11 ar   
    22   10   76 1    
    23   11   12 ar   
    24   11   48 1    
    25   12   13 ar   
    26   12   77 1    
    27   13   14 ar   
    28   13   15 1    
    29   14   78 1    
    30   15   16 1    
    31   15   79 1    
    32   15   80 1    
    33   16   17 1    
    34   17   18 1    
    35   17   81 1    
    36   17   82 1    
    37   18   19 1    
    38   18   22 1    
    39   18   83 1    
    40   19   20 am   BACKBONE|DICT|INTERRES
    41   19   21 2    
    42   20   84 1    
    43   20   85 1    
    44   22   23 am   BACKBONE|DICT|INTERRES
    45   22   86 1    
    46   23   24 2    
    47   23   25 1    
    48   25   26 1    
    49   25   27 1    
    50   25   87 1    
    51   26   88 1    
    52   26   89 1    
    53   26   90 1    
    54   27   28 am   BACKBONE|DICT|INTERRES
    55   27   91 1    
    56   28   29 2    
    57   28   30 1    
    58   30   31 1    
    59   30   32 1    
    60   30   92 1    
    61   31   93 1    
    62   31   94 1    
    63   31   95 1    
    64   32   33 am   BACKBONE|DICT|INTERRES
    65   32   96 1    
    66   33   34 2    
    67   33   35 1    
    68   35   36 1    
    69   35   37 1    
    70   35   97 1    
    71   36   98 1    
    72   36   99 1    
    73   36  100 1    
    74   37   38 am   BACKBONE|DICT|INTERRES
    75   37  101 1    
    76   38   39 2    
    77   38   40 1    
    78   40   41 1    
    79   40   42 1    
    80   40  102 1    
    81   41  103 1    
    82   41  104 1    
    83   41  105 1    
    84   42   43 am   BACKBONE|DICT|INTERRES
    85   42  106 1    
    86   43   44 2    
    87   43   45 1    
    88   45   46 1    
    89   45   49 1    
    90   45  107 1    
    91   46   47 1    
    92   46  108 1    
    93   46  109 1    
    94   47   48 1    
    95   48  110 1    
    96   48  111 1    
    97   49   50 am   BACKBONE|DICT|INTERRES
    98   49  112 1    
    99   50   51 2    
   100   50   52 1    
   101   52   53 1    
   102   52   54 1    
   103   52  113 1    
   104   53  114 1    
   105   53  115 1    
   106   53  116 1    
   107   54   55 am   BACKBONE|DICT|INTERRES
   108   54  117 1    
   109   55   56 2    
   110   55   57 1    
   111   57   58 1    
   112   57   59 1    
   113   57  118 1    
   114   58  119 1    
   115   58  120 1    
   116   58  121 1    
   117   59   60 am   BACKBONE|DICT|INTERRES
   118   59  122 1    
   119   60   61 2    
   120   60   62 1    
   121   62   63 1    
   122   62   64 1    
   123   62  123 1    
   124   63  124 1    
   125   63  125 1    
   126   63  126 1    
   127   64   65 am   BACKBONE|DICT|INTERRES
   128   64  127 1    
   129   65   66 2    
@<TRIPOS>SUBSTRUCTURE
     1 UNK         1 GROUP             0       ****    0 ROOT    
