@<TRIPOS>MOLECULE
3R134
127   129    1
SMALL
USER_CHARGES


@<TRIPOS>ATOM
      1 CA         35.4880  -43.8541  -49.9979 C.3       0 UNK        -0.1968 
      2 C          34.5968  -44.5043  -51.0456 C.2       0 UNK         0.4852 
      3 O          35.0883  -45.2666  -51.8794 O.2       0 UNK        -0.5359 
      4 N          33.2890  -44.2179  -51.0061 N.am      1 UNK        -0.4300 
      5 CA         32.2710  -44.7317  -51.9312 C.3       1 UNK         0.0863 
      6 C6         31.0599  -43.7668  -52.0493 C.3       11 UNK        -0.0953 
      7 S7         31.5526  -42.0923  -52.5883 S.3       11 UNK        -0.2369 
      8 C8         30.6689  -41.9090  -54.1778 C.3       11 UNK         0.0226 
      9 C9         31.1176  -42.8398  -55.3065 C.ar      11 UNK        -0.0699 
     10 C10        32.3717  -43.4610  -55.3248 C.ar      11 UNK        -0.0804 
     11 C11        32.7381  -44.3081  -56.3740 C.ar      11 UNK        -0.0871 
     12 C12        31.8408  -44.5258  -57.4257 C.ar      11 UNK        -0.1008 
     13 C13        30.5955  -43.8848  -57.4446 C.ar      11 UNK        -0.0735 
     14 C14        30.2524  -43.0395  -56.3849 C.ar      11 UNK        -0.0945 
     15 C15        29.6624  -44.0459  -58.6441 C.3       11 UNK         0.0169 
     16 S16        28.0832  -44.8802  -58.2552 S.3       11 UNK        -0.2669 
     17 C17        27.0457  -43.5170  -57.6185 C.3       11 UNK        -0.0850 
     18 CA         26.6894  -43.6875  -56.1170 C.3       10 UNK         0.0855 
     19 C          26.0813  -42.3770  -55.5390 C.2       10 UNK         0.5543 
     20 N          24.8199  -42.3506  -55.1264 N.am      10 UNK        -0.7343 
     21 O          26.7747  -41.3662  -55.4617 O.2       10 UNK        -0.5027 
     22 N          25.8793  -44.8944  -55.9024 N.am      10 UNK        -0.4495 
     23 C          25.6915  -45.5198  -54.7361 C.2       10 UNK         0.4903 
     24 O          26.1681  -45.1319  -53.6697 O.2       10 UNK        -0.4860 
     25 CA         24.8499  -46.8107  -54.7509 C.3       9 UNK         0.0227 
     26 CB         23.3858  -46.5247  -54.3629 C.3       9 UNK        -0.1964 
     27 N          24.9430  -47.5934  -55.9947 N.am      9 UNK        -0.4231 
     28 C          24.4905  -47.2974  -57.2237 C.2       9 UNK         0.5014 
     29 O          23.8765  -46.2623  -57.4864 O.2       9 UNK        -0.5270 
     30 CA         24.8365  -48.2835  -58.3574 C.3       8 UNK         0.0284 
     31 CB         24.8537  -47.5979  -59.7371 C.3       8 UNK        -0.1977 
     32 N          26.1395  -48.9115  -58.1311 N.am      8 UNK        -0.4342 
     33 C          26.3423  -50.1101  -57.5699 C.2       8 UNK         0.5039 
     34 O          25.4368  -50.8729  -57.2335 O.2       8 UNK        -0.5547 
     35 CA         27.8040  -50.5017  -57.2954 C.3       7 UNK         0.0281 
     36 CB         28.3763  -51.3227  -58.4612 C.3       7 UNK        -0.1963 
     37 N          28.6716  -49.3471  -57.0464 N.am      7 UNK        -0.4444 
     38 C          28.6035  -48.5400  -55.9796 C.2       7 UNK         0.5104 
     39 O          27.7667  -48.6683  -55.0849 O.2       7 UNK        -0.5100 
     40 CA         29.6558  -47.4188  -55.9089 C.3       6 UNK         0.0396 
     41 CB         29.6167  -46.6367  -54.5861 C.3       6 UNK        -0.1801 
     42 N          31.0080  -47.9320  -56.1240 N.am      6 UNK        -0.4747 
     43 C          31.5674  -48.1639  -57.3196 C.2       6 UNK         0.5012 
     44 O          30.9683  -48.0051  -58.3842 O.2       6 UNK        -0.5003 
     45 CA         32.9987  -48.7225  -57.3427 C.3       5 UNK         0.0782 
     46 C46        34.0792  -47.6139  -57.2926 C.3       11 UNK        -0.0868 
     47 S47        34.1406  -46.6373  -55.7463 S.3       11 UNK        -0.2515 
     48 C48        34.1291  -44.9301  -56.3843 C.3       11 UNK         0.0199 
     49 N          33.1702  -49.7495  -56.3106 N.am      5 UNK        -0.4607 
     50 C          33.5143  -51.0208  -56.5629 C.2       4 UNK         0.5031 
     51 O          33.8310  -51.4354  -57.6786 O.2       4 UNK        -0.5119 
     52 CA         33.4935  -52.0174  -55.3874 C.3       4 UNK         0.0263 
     53 CB         34.8945  -52.1420  -54.7671 C.3       4 UNK        -0.1967 
     54 N          32.5351  -51.6665  -54.3388 N.am      4 UNK        -0.4237 
     55 C          31.2048  -51.5930  -54.4908 C.2       3 UNK         0.4908 
     56 O          30.6136  -51.9536  -55.5083 O.2       3 UNK        -0.5102 
     57 CA         30.3922  -50.9936  -53.3245 C.3       3 UNK         0.0241 
     58 CB         29.5879  -52.0922  -52.6106 C.3       3 UNK        -0.1971 
     59 N          31.1718  -50.2441  -52.3268 N.am      3 UNK        -0.4139 
     60 C          31.9316  -49.1681  -52.5749 C.2       2 UNK         0.5016 
     61 O          32.1453  -48.7273  -53.7069 O.2       2 UNK        -0.5319 
     62 CA         32.6260  -48.5226  -51.3675 C.3       2 UNK         0.0286 
     63 CB         33.9959  -49.1779  -51.1289 C.3       2 UNK        -0.1963 
     64 N          32.8216  -47.0907  -51.5857 N.am      2 UNK        -0.4790 
     65 C          31.8552  -46.1663  -51.5426 C.2       1 UNK         0.5024 
     66 O          30.6996  -46.4094  -51.1901 O.2       1 UNK        -0.4888 
     67 H67        35.9760  -44.6188  -49.3942 H         1 UNK         0.0892 
     68 H68        36.2604  -43.2572  -50.4820 H         1 UNK         0.0892 
     69 H69        34.9247  -43.2024  -49.3303 H         1 UNK         0.0892 
     70 H70        32.9420  -43.5968  -50.2892 H         1 UNK         0.3107 
     71 H71        32.7199  -44.8190  -52.9213 H         1 UNK         0.0773 
     72 H72        30.5476  -43.6736  -51.0900 H         1 UNK         0.0680 
     73 H73        30.3223  -44.1641  -52.7489 H         1 UNK         0.0680 
     74 H74        30.7915  -40.8797  -54.5170 H         1 UNK         0.0650 
     75 H75        29.6022  -42.0461  -53.9913 H         1 UNK         0.0650 
     76 H76        33.0801  -43.2749  -54.5310 H         1 UNK         0.1397 
     77 H77        32.1258  -45.1705  -58.2455 H         1 UNK         0.1363 
     78 H78        29.3113  -42.5127  -56.4004 H         1 UNK         0.1355 
     79 H79        30.1582  -44.6304  -59.4206 H         1 UNK         0.0707 
     80 H80        29.4676  -43.0694  -59.0891 H         1 UNK         0.0707 
     81 H81        27.5481  -42.5663  -57.8029 H         1 UNK         0.1034 
     82 H82        26.1329  -43.4778  -58.2159 H         1 UNK         0.1034 
     83 H83        27.6190  -43.8421  -55.5671 H         1 UNK         0.0482 
     84 H84        24.2483  -43.1777  -55.1859 H         1 UNK         0.3460 
     85 H85        24.4392  -41.4965  -54.7507 H         1 UNK         0.3460 
     86 H86        25.3817  -45.2550  -56.7091 H         1 UNK         0.2989 
     87 H87        25.2712  -47.4555  -53.9779 H         1 UNK         0.0559 
     88 H88        22.8951  -45.8579  -55.0721 H         1 UNK         0.0848 
     89 H89        23.3310  -46.0483  -53.3831 H         1 UNK         0.0848 
     90 H90        22.8030  -47.4441  -54.3082 H         1 UNK         0.0848 
     91 H91        25.4944  -48.4377  -55.9069 H         1 UNK         0.3144 
     92 H92        24.0527  -49.0436  -58.3700 H         1 UNK         0.0727 
     93 H93        23.8764  -47.1787  -59.9803 H         1 UNK         0.0790 
     94 H94        25.5776  -46.7823  -59.7734 H         1 UNK         0.0790 
     95 H95        25.1045  -48.3049  -60.5281 H         1 UNK         0.0790 
     96 H96        26.9513  -48.3498  -58.3475 H         1 UNK         0.3215 
     97 H97        27.8160  -51.1255  -56.3986 H         1 UNK         0.0863 
     98 H98        28.4207  -50.7421  -59.3835 H         1 UNK         0.0808 
     99 H99        27.7616  -52.2025  -58.6572 H         1 UNK         0.0808 
    100 H100       29.3830  -51.6768  -58.2366 H         1 UNK         0.0808 
    101 H101       29.3964  -49.1504  -57.7284 H         1 UNK         0.3118 
    102 H102       29.4303  -46.7139  -56.7056 H         1 UNK         0.0546 
    103 H103       28.6566  -46.1384  -54.4557 H         1 UNK         0.0828 
    104 H104       30.3863  -45.8651  -54.5640 H         1 UNK         0.0828 
    105 H105       29.7656  -47.2893  -53.7259 H         1 UNK         0.0828 
    106 H106       31.5443  -48.1213  -55.2781 H         1 UNK         0.3005 
    107 H107       33.0931  -49.1903  -58.3256 H         1 UNK         0.1257 
    108 H108       33.9502  -46.9478  -58.1470 H         1 UNK         0.0775 
    109 H109       35.0618  -48.0676  -57.4297 H         1 UNK         0.0775 
    110 H110       34.8020  -44.3372  -55.7627 H         1 UNK         0.0840 
    111 H111       34.5538  -44.8877  -57.3881 H         1 UNK         0.0840 
    112 H112       32.9239  -49.4788  -55.3633 H         1 UNK         0.2987 
    113 H113       33.2047  -52.9913  -55.7883 H         1 UNK         0.0785 
    114 H114       35.2280  -51.1996  -54.3302 H         1 UNK         0.0798 
    115 H115       35.6298  -52.4302  -55.5198 H         1 UNK         0.0798 
    116 H116       34.9181  -52.9028  -53.9866 H         1 UNK         0.0798 
    117 H117       32.9228  -51.3507  -53.4626 H         1 UNK         0.3079 
    118 H118       29.6845  -50.2910  -53.7680 H         1 UNK         0.0794 
    119 H119       30.2402  -52.8131  -52.1162 H         1 UNK         0.0786 
    120 H120       28.9674  -52.6452  -53.3176 H         1 UNK         0.0786 
    121 H121       28.9187  -51.6712  -51.8599 H         1 UNK         0.0786 
    122 H122       31.0791  -50.5560  -51.3704 H         1 UNK         0.3032 
    123 H123       32.0026  -48.6588  -50.4807 H         1 UNK         0.1094 
    124 H124       34.5028  -48.7345  -50.2716 H         1 UNK         0.0794 
    125 H125       33.8932  -50.2447  -50.9261 H         1 UNK         0.0794 
    126 H126       34.6500  -49.0707  -51.9957 H         1 UNK         0.0794 
    127 H127       33.7437  -46.7876  -51.8844 H         1 UNK         0.3016 
@<TRIPOS>BOND
     1    1    2 1    
     2    1   67 1    
     3    1   68 1    
     4    1   69 1    
     5    2    3 2    
     6    2    4 am   BACKBONE|DICT|INTERRES
     7    4    5 1    
     8    4   70 1    
     9    5    6 1    
    10    5   65 1    
    11    5   71 1    
    12    6    7 1    
    13    6   72 1    
    14    6   73 1    
    15    7    8 1    
    16    8    9 1    
    17    8   74 1    
    18    8   75 1    
    19    9   10 ar   
    20    9   14 ar   
    21   10   11 ar   
    22   10   76 1    
    23   11   12 ar   
    24   11   48 1    
    25   12   13 ar   
    26   12   77 1    
    27   13   14 ar   
    28   13   15 1    
    29   14   78 1    
    30   15   16 1    
    31   15   79 1    
    32   15   80 1    
    33   16   17 1    
    34   17   18 1    
    35   17   81 1    
    36   17   82 1    
    37   18   19 1    
    38   18   22 1    
    39   18   83 1    
    40   19   20 am   BACKBONE|DICT|INTERRES
    41   19   21 2    
    42   20   84 1    
    43   20   85 1    
    44   22   23 am   BACKBONE|DICT|INTERRES
    45   22   86 1    
    46   23   24 2    
    47   23   25 1    
    48   25   26 1    
    49   25   27 1    
    50   25   87 1    
    51   26   88 1    
    52   26   89 1    
    53   26   90 1    
    54   27   28 am   BACKBONE|DICT|INTERRES
    55   27   91 1    
    56   28   29 2    
    57   28   30 1    
    58   30   31 1    
    59   30   32 1    
    60   30   92 1    
    61   31   93 1    
    62   31   94 1    
    63   31   95 1    
    64   32   33 am   BACKBONE|DICT|INTERRES
    65   32   96 1    
    66   33   34 2    
    67   33   35 1    
    68   35   36 1    
    69   35   37 1    
    70   35   97 1    
    71   36   98 1    
    72   36   99 1    
    73   36  100 1    
    74   37   38 am   BACKBONE|DICT|INTERRES
    75   37  101 1    
    76   38   39 2    
    77   38   40 1    
    78   40   41 1    
    79   40   42 1    
    80   40  102 1    
    81   41  103 1    
    82   41  104 1    
    83   41  105 1    
    84   42   43 am   BACKBONE|DICT|INTERRES
    85   42  106 1    
    86   43   44 2    
    87   43   45 1    
    88   45   46 1    
    89   45   49 1    
    90   45  107 1    
    91   46   47 1    
    92   46  108 1    
    93   46  109 1    
    94   47   48 1    
    95   48  110 1    
    96   48  111 1    
    97   49   50 am   BACKBONE|DICT|INTERRES
    98   49  112 1    
    99   50   51 2    
   100   50   52 1    
   101   52   53 1    
   102   52   54 1    
   103   52  113 1    
   104   53  114 1    
   105   53  115 1    
   106   53  116 1    
   107   54   55 am   BACKBONE|DICT|INTERRES
   108   54  117 1    
   109   55   56 2    
   110   55   57 1    
   111   57   58 1    
   112   57   59 1    
   113   57  118 1    
   114   58  119 1    
   115   58  120 1    
   116   58  121 1    
   117   59   60 am   BACKBONE|DICT|INTERRES
   118   59  122 1    
   119   60   61 2    
   120   60   62 1    
   121   62   63 1    
   122   62   64 1    
   123   62  123 1    
   124   63  124 1    
   125   63  125 1    
   126   63  126 1    
   127   64   65 am   BACKBONE|DICT|INTERRES
   128   64  127 1    
   129   65   66 2    
@<TRIPOS>SUBSTRUCTURE
     1 UNK         1 GROUP             0       ****    0 ROOT    
