@<TRIPOS>MOLECULE
3R134
127   129    1
SMALL
USER_CHARGES


@<TRIPOS>ATOM
      1 CA         36.4437  -45.0103  -47.4815 C.3       0 UNK        -0.1968 
      2 C          36.4601  -45.1298  -48.9986 C.2       0 UNK         0.4852 
      3 O          37.4545  -45.5873  -49.5650 O.2       0 UNK        -0.5359 
      4 N          35.3720  -44.7137  -49.6585 N.am      1 UNK        -0.4300 
      5 CA         35.1740  -44.8183  -51.1071 C.3       1 UNK         0.0863 
      6 C6         34.1185  -43.8015  -51.6145 C.3       11 UNK        -0.0953 
      7 S7         32.4918  -43.8825  -50.7818 S.3       11 UNK        -0.2369 
      8 C8         31.5115  -44.9455  -51.8898 C.3       11 UNK         0.0226 
      9 C9         31.1451  -44.2571  -53.1985 C.ar      11 UNK        -0.0699 
     10 C10        31.9601  -44.4050  -54.3256 C.ar      11 UNK        -0.0804 
     11 C11        31.6428  -43.7579  -55.5231 C.ar      11 UNK        -0.0871 
     12 C12        30.4969  -42.9664  -55.5888 C.ar      11 UNK        -0.1008 
     13 C13        29.6328  -42.8685  -54.4951 C.ar      11 UNK        -0.0735 
     14 C14        29.9713  -43.5014  -53.2946 C.ar      11 UNK        -0.0945 
     15 C15        28.3262  -42.0979  -54.6279 C.3       11 UNK         0.0169 
     16 S16        26.9931  -43.1432  -55.3101 S.3       11 UNK        -0.2669 
     17 C17        27.6499  -43.5163  -56.9733 C.3       11 UNK        -0.0850 
     18 CA         26.5785  -43.9368  -58.0060 C.3       10 UNK         0.0855 
     19 C          27.2307  -44.1638  -59.3958 C.2       10 UNK         0.5543 
     20 N          27.9091  -45.2857  -59.6044 N.am      10 UNK        -0.7343 
     21 O          27.1222  -43.3197  -60.2815 O.2       10 UNK        -0.5027 
     22 N          25.8071  -45.1059  -57.5676 N.am      10 UNK        -0.4495 
     23 C          24.6145  -45.4459  -58.0707 C.2       10 UNK         0.4903 
     24 O          23.9925  -44.7707  -58.8933 O.2       10 UNK        -0.4860 
     25 CA         24.0374  -46.7740  -57.5608 C.3       9 UNK         0.0227 
     26 CB         22.6205  -47.0814  -58.0927 C.3       9 UNK        -0.1964 
     27 N          24.9660  -47.8800  -57.8114 N.am      9 UNK        -0.4231 
     28 C          25.3395  -48.4006  -58.9927 C.2       9 UNK         0.5014 
     29 O          24.8945  -48.0231  -60.0776 O.2       9 UNK        -0.5270 
     30 CA         26.3840  -49.5401  -58.9850 C.3       8 UNK         0.0284 
     31 CB         27.6020  -49.1816  -59.8544 C.3       8 UNK        -0.1977 
     32 N          26.8505  -49.9164  -57.6477 N.am      8 UNK        -0.4342 
     33 C          26.1339  -50.5913  -56.7389 C.2       8 UNK         0.5039 
     34 O          25.0250  -51.0757  -56.9665 O.2       8 UNK        -0.5547 
     35 CA         26.7231  -50.6977  -55.3218 C.3       7 UNK         0.0281 
     36 CB         27.4679  -52.0308  -55.1535 C.3       7 UNK        -0.1963 
     37 N          27.6081  -49.5831  -54.9558 N.am      7 UNK        -0.4444 
     38 C          27.2402  -48.2947  -54.8751 C.2       7 UNK         0.5104 
     39 O          26.1035  -47.8927  -55.1222 O.2       7 UNK        -0.5100 
     40 CA         28.3306  -47.2768  -54.4986 C.3       6 UNK         0.0396 
     41 CB         28.6276  -47.3319  -52.9942 C.3       6 UNK        -0.1801 
     42 N          29.5662  -47.4699  -55.2602 N.am      6 UNK        -0.4747 
     43 C          29.6685  -47.2964  -56.5872 C.2       6 UNK         0.5012 
     44 O          28.7430  -46.8966  -57.2977 O.2       6 UNK        -0.5003 
     45 CA         30.9998  -47.7262  -57.2405 C.3       5 UNK         0.0782 
     46 C46        32.1221  -46.6684  -57.1230 C.3       11 UNK        -0.0868 
     47 S47        31.7873  -45.0825  -57.9543 S.3       11 UNK        -0.2515 
     48 C48        32.5176  -43.9151  -56.7581 C.3       11 UNK         0.0199 
     49 N          31.4608  -49.0002  -56.6857 N.am      5 UNK        -0.4607 
     50 C          30.8684  -50.1857  -56.8727 C.2       4 UNK         0.5031 
     51 O          29.8717  -50.3507  -57.5743 O.2       4 UNK        -0.5119 
     52 CA         31.4802  -51.3831  -56.1240 C.3       4 UNK         0.0263 
     53 CB         32.6008  -52.0225  -56.9590 C.3       4 UNK        -0.1967 
     54 N          31.9985  -51.0287  -54.7980 N.am      4 UNK        -0.4237 
     55 C          31.2382  -50.6086  -53.7760 C.2       3 UNK         0.4908 
     56 O          30.0150  -50.5038  -53.8353 O.2       3 UNK        -0.5102 
     57 CA         31.9583  -50.1988  -52.4812 C.3       3 UNK         0.0241 
     58 CB         32.1367  -51.4133  -51.5565 C.3       3 UNK        -0.1971 
     59 N          33.2556  -49.5526  -52.7034 N.am      3 UNK        -0.4139 
     60 C          33.4254  -48.3922  -53.3513 C.2       2 UNK         0.5016 
     61 O          32.5083  -47.7632  -53.8833 O.2       2 UNK        -0.5319 
     62 CA         34.8680  -47.8674  -53.4596 C.3       2 UNK         0.0286 
     63 CB         35.3032  -47.7959  -54.9331 C.3       2 UNK        -0.1963 
     64 N          35.0467  -46.5492  -52.8423 N.am      2 UNK        -0.4790 
     65 C          34.8679  -46.2706  -51.5423 C.2       1 UNK         0.5024 
     66 O          34.4898  -47.1024  -50.7125 O.2       1 UNK        -0.4888 
     67 H67        37.2663  -44.3796  -47.1454 H         1 UNK         0.0892 
     68 H68        36.5596  -45.9938  -47.0269 H         1 UNK         0.0892 
     69 H69        35.5130  -44.5760  -47.1166 H         1 UNK         0.0892 
     70 H70        34.5710  -44.3778  -49.1426 H         1 UNK         0.3107 
     71 H71        36.1222  -44.5516  -51.5796 H         1 UNK         0.0773 
     72 H72        34.5012  -42.7939  -51.4453 H         1 UNK         0.0680 
     73 H73        34.0015  -43.8691  -52.6938 H         1 UNK         0.0680 
     74 H74        32.0449  -45.8755  -52.0815 H         1 UNK         0.0650 
     75 H75        30.6033  -45.2261  -51.3561 H         1 UNK         0.0650 
     76 H76        32.8405  -45.0295  -54.2695 H         1 UNK         0.1397 
     77 H77        30.2585  -42.4629  -56.5145 H         1 UNK         0.1363 
     78 H78        29.3162  -43.4156  -52.4385 H         1 UNK         0.1355 
     79 H79        28.4664  -41.2218  -55.2630 H         1 UNK         0.0707 
     80 H80        28.0141  -41.7202  -53.6531 H         1 UNK         0.0707 
     81 H81        28.4090  -44.2942  -56.8730 H         1 UNK         0.1034 
     82 H82        28.1626  -42.6268  -57.3424 H         1 UNK         0.1034 
     83 H83        25.8845  -43.0995  -58.1064 H         1 UNK         0.0482 
     84 H84        28.0609  -45.9397  -58.8431 H         1 UNK         0.3460 
     85 H85        28.3364  -45.4452  -60.5019 H         1 UNK         0.3460 
     86 H86        26.2643  -45.7260  -56.9144 H         1 UNK         0.2989 
     87 H87        23.9608  -46.6813  -56.4764 H         1 UNK         0.0559 
     88 H88        22.2457  -48.0261  -57.6991 H         1 UNK         0.0848 
     89 H89        22.5918  -47.1363  -59.1811 H         1 UNK         0.0848 
     90 H90        21.9181  -46.3031  -57.7923 H         1 UNK         0.0848 
     91 H91        25.4247  -48.2307  -56.9764 H         1 UNK         0.3144 
     92 H92        25.9004  -50.4121  -59.4299 H         1 UNK         0.0727 
     93 H93        28.3089  -50.0099  -59.9073 H         1 UNK         0.0790 
     94 H94        28.1335  -48.3133  -59.4663 H         1 UNK         0.0790 
     95 H95        27.3022  -48.9491  -60.8770 H         1 UNK         0.0790 
     96 H96        27.7856  -49.6183  -57.3939 H         1 UNK         0.3215 
     97 H97        25.8846  -50.6865  -54.6223 H         1 UNK         0.0863 
     98 H98        27.8267  -52.1612  -54.1324 H         1 UNK         0.0808 
     99 H99        28.3246  -52.0973  -55.8237 H         1 UNK         0.0808 
    100 H100       26.8136  -52.8748  -55.3764 H         1 UNK         0.0808 
    101 H101       28.5567  -49.8336  -54.6785 H         1 UNK         0.3118 
    102 H102       27.9528  -46.2781  -54.7296 H         1 UNK         0.0546 
    103 H103       27.7246  -47.1465  -52.4114 H         1 UNK         0.0828 
    104 H104       29.3538  -46.5728  -52.7159 H         1 UNK         0.0828 
    105 H105       29.0225  -48.3004  -52.6876 H         1 UNK         0.0828 
    106 H106       30.3822  -47.7866  -54.7495 H         1 UNK         0.3005 
    107 H107       30.7950  -47.8840  -58.3021 H         1 UNK         0.1257 
    108 H108       33.0420  -47.0630  -57.5571 H         1 UNK         0.0775 
    109 H109       32.3481  -46.4869  -56.0748 H         1 UNK         0.0775 
    110 H110       33.5214  -44.2457  -56.4861 H         1 UNK         0.0840 
    111 H111       32.6390  -42.9448  -57.2421 H         1 UNK         0.0840 
    112 H112       32.2374  -48.9482  -56.0427 H         1 UNK         0.2987 
    113 H113       30.6927  -52.1264  -55.9875 H         1 UNK         0.0785 
    114 H114       33.4352  -51.3368  -57.1121 H         1 UNK         0.0798 
    115 H115       32.2337  -52.3139  -57.9442 H         1 UNK         0.0798 
    116 H116       32.9878  -52.9226  -56.4811 H         1 UNK         0.0798 
    117 H117       32.9962  -51.0961  -54.6600 H         1 UNK         0.3079 
    118 H118       31.3180  -49.4753  -51.9717 H         1 UNK         0.0794 
    119 H119       32.7972  -52.1632  -51.9938 H         1 UNK         0.0786 
    120 H120       31.1788  -51.8974  -51.3600 H         1 UNK         0.0786 
    121 H121       32.5520  -51.1200  -50.5921 H         1 UNK         0.0786 
    122 H122       34.0591  -50.0012  -52.2872 H         1 UNK         0.3032 
    123 H123       35.5338  -48.5634  -52.9443 H         1 UNK         0.1094 
    124 H124       35.1725  -48.7586  -55.4293 H         1 UNK         0.0794 
    125 H125       36.3564  -47.5292  -55.0230 H         1 UNK         0.0794 
    126 H126       34.7236  -47.0598  -55.4910 H         1 UNK         0.0794 
    127 H127       35.3495  -45.8085  -53.4578 H         1 UNK         0.3016 
@<TRIPOS>BOND
     1    1    2 1    
     2    1   67 1    
     3    1   68 1    
     4    1   69 1    
     5    2    3 2    
     6    2    4 am   BACKBONE|DICT|INTERRES
     7    4    5 1    
     8    4   70 1    
     9    5    6 1    
    10    5   65 1    
    11    5   71 1    
    12    6    7 1    
    13    6   72 1    
    14    6   73 1    
    15    7    8 1    
    16    8    9 1    
    17    8   74 1    
    18    8   75 1    
    19    9   10 ar   
    20    9   14 ar   
    21   10   11 ar   
    22   10   76 1    
    23   11   12 ar   
    24   11   48 1    
    25   12   13 ar   
    26   12   77 1    
    27   13   14 ar   
    28   13   15 1    
    29   14   78 1    
    30   15   16 1    
    31   15   79 1    
    32   15   80 1    
    33   16   17 1    
    34   17   18 1    
    35   17   81 1    
    36   17   82 1    
    37   18   19 1    
    38   18   22 1    
    39   18   83 1    
    40   19   20 am   BACKBONE|DICT|INTERRES
    41   19   21 2    
    42   20   84 1    
    43   20   85 1    
    44   22   23 am   BACKBONE|DICT|INTERRES
    45   22   86 1    
    46   23   24 2    
    47   23   25 1    
    48   25   26 1    
    49   25   27 1    
    50   25   87 1    
    51   26   88 1    
    52   26   89 1    
    53   26   90 1    
    54   27   28 am   BACKBONE|DICT|INTERRES
    55   27   91 1    
    56   28   29 2    
    57   28   30 1    
    58   30   31 1    
    59   30   32 1    
    60   30   92 1    
    61   31   93 1    
    62   31   94 1    
    63   31   95 1    
    64   32   33 am   BACKBONE|DICT|INTERRES
    65   32   96 1    
    66   33   34 2    
    67   33   35 1    
    68   35   36 1    
    69   35   37 1    
    70   35   97 1    
    71   36   98 1    
    72   36   99 1    
    73   36  100 1    
    74   37   38 am   BACKBONE|DICT|INTERRES
    75   37  101 1    
    76   38   39 2    
    77   38   40 1    
    78   40   41 1    
    79   40   42 1    
    80   40  102 1    
    81   41  103 1    
    82   41  104 1    
    83   41  105 1    
    84   42   43 am   BACKBONE|DICT|INTERRES
    85   42  106 1    
    86   43   44 2    
    87   43   45 1    
    88   45   46 1    
    89   45   49 1    
    90   45  107 1    
    91   46   47 1    
    92   46  108 1    
    93   46  109 1    
    94   47   48 1    
    95   48  110 1    
    96   48  111 1    
    97   49   50 am   BACKBONE|DICT|INTERRES
    98   49  112 1    
    99   50   51 2    
   100   50   52 1    
   101   52   53 1    
   102   52   54 1    
   103   52  113 1    
   104   53  114 1    
   105   53  115 1    
   106   53  116 1    
   107   54   55 am   BACKBONE|DICT|INTERRES
   108   54  117 1    
   109   55   56 2    
   110   55   57 1    
   111   57   58 1    
   112   57   59 1    
   113   57  118 1    
   114   58  119 1    
   115   58  120 1    
   116   58  121 1    
   117   59   60 am   BACKBONE|DICT|INTERRES
   118   59  122 1    
   119   60   61 2    
   120   60   62 1    
   121   62   63 1    
   122   62   64 1    
   123   62  123 1    
   124   63  124 1    
   125   63  125 1    
   126   63  126 1    
   127   64   65 am   BACKBONE|DICT|INTERRES
   128   64  127 1    
   129   65   66 2    
@<TRIPOS>SUBSTRUCTURE
     1 UNK         1 GROUP             0       ****    0 ROOT    
