@<TRIPOS>MOLECULE
3R134
127   129    1
SMALL
USER_CHARGES


@<TRIPOS>ATOM
      1 CA         37.7131  -46.5632  -53.5346 C.3       0 UNK        -0.1968 
      2 C          37.1066  -45.5183  -52.6000 C.2       0 UNK         0.4852 
      3 O          37.8165  -45.0071  -51.7353 O.2       0 UNK        -0.5359 
      4 N          35.8213  -45.1535  -52.7279 N.am      1 UNK        -0.4300 
      5 CA         34.8182  -45.6873  -53.6598 C.3       1 UNK         0.0863 
      6 C6         33.5020  -44.8798  -53.6025 C.3       11 UNK        -0.0953 
      7 S7         33.7209  -43.1576  -54.1599 S.3       11 UNK        -0.2369 
      8 C8         32.3494  -42.9892  -55.3577 C.3       11 UNK         0.0226 
      9 C9         30.9415  -43.1995  -54.7909 C.ar      11 UNK        -0.0699 
     10 C10        30.6651  -43.1593  -53.4183 C.ar      11 UNK        -0.0804 
     11 C11        29.3783  -43.4155  -52.9414 C.ar      11 UNK        -0.0871 
     12 C12        28.3331  -43.6083  -53.8462 C.ar      11 UNK        -0.1008 
     13 C13        28.5899  -43.6644  -55.2178 C.ar      11 UNK        -0.0735 
     14 C14        29.8968  -43.4725  -55.6795 C.ar      11 UNK        -0.0945 
     15 C15        27.4747  -44.0636  -56.1712 C.3       11 UNK         0.0169 
     16 S16        26.7418  -42.6722  -57.0939 S.3       11 UNK        -0.2669 
     17 C17        27.8811  -42.4201  -58.5016 C.3       11 UNK        -0.0850 
     18 CA         27.5695  -43.3107  -59.7356 C.3       10 UNK         0.0855 
     19 C          28.4606  -42.8841  -60.9353 C.2       10 UNK         0.5543 
     20 N          27.9452  -42.0481  -61.8258 N.am      10 UNK        -0.7343 
     21 O          29.6255  -43.2651  -61.0336 O.2       10 UNK        -0.5027 
     22 N          27.7001  -44.7373  -59.4048 N.am      10 UNK        -0.4495 
     23 C          27.4801  -45.7756  -60.2198 C.2       10 UNK         0.4903 
     24 O          27.0948  -45.6772  -61.3851 O.2       10 UNK        -0.4860 
     25 CA         27.7180  -47.1720  -59.6163 C.3       9 UNK         0.0227 
     26 CB         29.2048  -47.5537  -59.7045 C.3       9 UNK        -0.1964 
     27 N          27.2685  -47.3023  -58.2258 N.am      9 UNK        -0.4231 
     28 C          25.9917  -47.2455  -57.8199 C.2       9 UNK         0.5014 
     29 O          25.0403  -47.0110  -58.5678 O.2       9 UNK        -0.5270 
     30 CA         25.7537  -47.5451  -56.3267 C.3       8 UNK         0.0284 
     31 CB         24.2718  -47.4451  -55.9093 C.3       8 UNK        -0.1977 
     32 N          26.3257  -48.8373  -55.9329 N.am      8 UNK        -0.4342 
     33 C          26.0398  -50.0509  -56.4298 C.2       8 UNK         0.5039 
     34 O          25.1648  -50.2677  -57.2689 O.2       8 UNK        -0.5547 
     35 CA         26.8896  -51.2328  -55.9293 C.3       7 UNK         0.0281 
     36 CB         27.8778  -51.6687  -57.0244 C.3       7 UNK        -0.1963 
     37 N          27.6353  -50.9334  -54.7031 N.am      7 UNK        -0.4444 
     38 C          27.1050  -50.9387  -53.4724 C.2       7 UNK         0.5104 
     39 O          25.9365  -51.2432  -53.2313 O.2       7 UNK        -0.5100 
     40 CA         28.0261  -50.5054  -52.3167 C.3       6 UNK         0.0396 
     41 CB         28.9535  -51.6570  -51.9005 C.3       6 UNK        -0.1801 
     42 N          28.8227  -49.3104  -52.6177 N.am      6 UNK        -0.4747 
     43 C          28.3095  -48.1005  -52.8934 C.2       6 UNK         0.5012 
     44 O          27.1027  -47.8680  -52.9603 O.2       6 UNK        -0.5003 
     45 CA         29.3109  -46.9721  -53.1975 C.3       5 UNK         0.0782 
     46 C46        29.8992  -46.3347  -51.9085 C.3       11 UNK        -0.0868 
     47 S47        28.6774  -45.2985  -51.0162 S.3       11 UNK        -0.2515 
     48 C48        29.1417  -43.5816  -51.4482 C.3       11 UNK         0.0199 
     49 N          30.3459  -47.4502  -54.1165 N.am      5 UNK        -0.4607 
     50 C          30.1560  -47.6136  -55.4352 C.2       4 UNK         0.5031 
     51 O          29.1258  -47.2885  -56.0280 O.2       4 UNK        -0.5119 
     52 CA         31.2825  -48.2922  -56.2325 C.3       4 UNK         0.0263 
     53 CB         32.2275  -47.2457  -56.8428 C.3       4 UNK        -0.1967 
     54 N          32.0454  -49.2635  -55.4416 N.am      4 UNK        -0.4237 
     55 C          31.5347  -50.4239  -54.9997 C.2       3 UNK         0.4908 
     56 O          30.3875  -50.7946  -55.2397 O.2       3 UNK        -0.5102 
     57 CA         32.4188  -51.3064  -54.1024 C.3       3 UNK         0.0241 
     58 CB         33.2322  -52.2905  -54.9572 C.3       3 UNK        -0.1971 
     59 N          33.3225  -50.5588  -53.2275 N.am      3 UNK        -0.4139 
     60 C          32.9660  -49.6121  -52.3480 C.2       2 UNK         0.5016 
     61 O          31.8019  -49.2532  -52.1554 O.2       2 UNK        -0.5319 
     62 CA         34.1102  -48.8945  -51.6055 C.3       2 UNK         0.0286 
     63 CB         35.4387  -49.6847  -51.5902 C.3       2 UNK        -0.1963 
     64 N          34.3461  -47.5408  -52.1244 N.am      2 UNK        -0.4790 
     65 C          34.5249  -47.1767  -53.4054 C.2       1 UNK         0.5024 
     66 O          34.4913  -47.9519  -54.3619 O.2       1 UNK        -0.4888 
     67 H67        37.4781  -47.5684  -53.1862 H         1 UNK         0.0892 
     68 H68        37.3575  -46.4538  -54.5581 H         1 UNK         0.0892 
     69 H69        38.7982  -46.4644  -53.5573 H         1 UNK         0.0892 
     70 H70        35.4783  -44.4284  -52.1142 H         1 UNK         0.3107 
     71 H71        35.2167  -45.6020  -54.6726 H         1 UNK         0.0773 
     72 H72        32.7310  -45.3514  -54.2137 H         1 UNK         0.0680 
     73 H73        33.1056  -44.8603  -52.5857 H         1 UNK         0.0680 
     74 H74        32.3985  -41.9917  -55.7956 H         1 UNK         0.0650 
     75 H75        32.5241  -43.6940  -56.1723 H         1 UNK         0.0650 
     76 H76        31.4565  -42.9804  -52.7057 H         1 UNK         0.1397 
     77 H77        27.3374  -43.8085  -53.4736 H         1 UNK         0.1363 
     78 H78        30.1169  -43.5639  -56.7320 H         1 UNK         0.1355 
     79 H79        26.6666  -44.5287  -55.6059 H         1 UNK         0.0707 
     80 H80        27.8433  -44.8378  -56.8383 H         1 UNK         0.0707 
     81 H81        27.7938  -41.3678  -58.7796 H         1 UNK         0.1034 
     82 H82        28.9143  -42.5428  -58.1841 H         1 UNK         0.1034 
     83 H83        26.5263  -43.1516  -60.0158 H         1 UNK         0.0482 
     84 H84        26.9943  -41.7219  -61.7464 H         1 UNK         0.3460 
     85 H85        28.5141  -41.7463  -62.6015 H         1 UNK         0.3460 
     86 H86        28.0245  -44.9392  -58.4739 H         1 UNK         0.2989 
     87 H87        27.1497  -47.8889  -60.2127 H         1 UNK         0.0559 
     88 H88        29.8282  -46.8937  -59.1006 H         1 UNK         0.0848 
     89 H89        29.5638  -47.4898  -60.7327 H         1 UNK         0.0848 
     90 H90        29.3733  -48.5764  -59.3668 H         1 UNK         0.0848 
     91 H91        27.9834  -47.4593  -57.5178 H         1 UNK         0.3144 
     92 H92        26.3041  -46.7937  -55.7617 H         1 UNK         0.0727 
     93 H93        23.8754  -46.4508  -56.1183 H         1 UNK         0.0790 
     94 H94        24.1505  -47.6255  -54.8411 H         1 UNK         0.0790 
     95 H95        23.6488  -48.1628  -56.4440 H         1 UNK         0.0790 
     96 H96        27.0602  -48.7863  -55.2401 H         1 UNK         0.3215 
     97 H97        26.2110  -52.0655  -55.7315 H         1 UNK         0.0863 
     98 H98        28.4754  -52.5224  -56.7042 H         1 UNK         0.0808 
     99 H99        28.5620  -50.8627  -57.2933 H         1 UNK         0.0808 
    100 H100       27.3503  -51.9641  -57.9324 H         1 UNK         0.0808 
    101 H101       28.6305  -50.7387  -54.8134 H         1 UNK         0.3118 
    102 H102       27.3918  -50.2609  -51.4621 H         1 UNK         0.0546 
    103 H103       29.5745  -51.9930  -52.7299 H         1 UNK         0.0828 
    104 H104       28.3745  -52.5173  -51.5623 H         1 UNK         0.0828 
    105 H105       29.6117  -51.3660  -51.0817 H         1 UNK         0.0828 
    106 H106       29.8332  -49.4039  -52.5651 H         1 UNK         0.3005 
    107 H107       28.7503  -46.2018  -53.7261 H         1 UNK         0.1257 
    108 H108       30.7658  -45.7209  -52.1538 H         1 UNK         0.0775 
    109 H109       30.2718  -47.1028  -51.2282 H         1 UNK         0.0775 
    110 H110       28.3485  -42.9045  -51.1282 H         1 UNK         0.0840 
    111 H111       30.0304  -43.3044  -50.8789 H         1 UNK         0.0840 
    112 H112       31.1834  -47.8247  -53.6900 H         1 UNK         0.2987 
    113 H113       30.8092  -48.8327  -57.0553 H         1 UNK         0.0785 
    114 H114       32.7796  -46.6997  -56.0802 H         1 UNK         0.0798 
    115 H115       31.6739  -46.5115  -57.4296 H         1 UNK         0.0798 
    116 H116       32.9536  -47.7115  -57.5092 H         1 UNK         0.0798 
    117 H117       32.9890  -49.0020  -55.1702 H         1 UNK         0.3079 
    118 H118       31.7575  -51.8862  -53.4577 H         1 UNK         0.0794 
    119 H119       32.5785  -52.8785  -55.6033 H         1 UNK         0.0786 
    120 H120       33.7863  -52.9940  -54.3353 H         1 UNK         0.0786 
    121 H121       33.9464  -51.7735  -55.5995 H         1 UNK         0.0786 
    122 H122       34.3087  -50.7444  -53.3377 H         1 UNK         0.3032 
    123 H123       33.7750  -48.7876  -50.5723 H         1 UNK         0.1094 
    124 H124       36.1692  -49.2002  -50.9420 H         1 UNK         0.0794 
    125 H125       35.2949  -50.6950  -51.2039 H         1 UNK         0.0794 
    126 H126       35.8883  -49.7646  -52.5807 H         1 UNK         0.0794 
    127 H127       34.3796  -46.8119  -51.4249 H         1 UNK         0.3016 
@<TRIPOS>BOND
     1    1    2 1    
     2    1   67 1    
     3    1   68 1    
     4    1   69 1    
     5    2    3 2    
     6    2    4 am   BACKBONE|DICT|INTERRES
     7    4    5 1    
     8    4   70 1    
     9    5    6 1    
    10    5   65 1    
    11    5   71 1    
    12    6    7 1    
    13    6   72 1    
    14    6   73 1    
    15    7    8 1    
    16    8    9 1    
    17    8   74 1    
    18    8   75 1    
    19    9   10 ar   
    20    9   14 ar   
    21   10   11 ar   
    22   10   76 1    
    23   11   12 ar   
    24   11   48 1    
    25   12   13 ar   
    26   12   77 1    
    27   13   14 ar   
    28   13   15 1    
    29   14   78 1    
    30   15   16 1    
    31   15   79 1    
    32   15   80 1    
    33   16   17 1    
    34   17   18 1    
    35   17   81 1    
    36   17   82 1    
    37   18   19 1    
    38   18   22 1    
    39   18   83 1    
    40   19   20 am   BACKBONE|DICT|INTERRES
    41   19   21 2    
    42   20   84 1    
    43   20   85 1    
    44   22   23 am   BACKBONE|DICT|INTERRES
    45   22   86 1    
    46   23   24 2    
    47   23   25 1    
    48   25   26 1    
    49   25   27 1    
    50   25   87 1    
    51   26   88 1    
    52   26   89 1    
    53   26   90 1    
    54   27   28 am   BACKBONE|DICT|INTERRES
    55   27   91 1    
    56   28   29 2    
    57   28   30 1    
    58   30   31 1    
    59   30   32 1    
    60   30   92 1    
    61   31   93 1    
    62   31   94 1    
    63   31   95 1    
    64   32   33 am   BACKBONE|DICT|INTERRES
    65   32   96 1    
    66   33   34 2    
    67   33   35 1    
    68   35   36 1    
    69   35   37 1    
    70   35   97 1    
    71   36   98 1    
    72   36   99 1    
    73   36  100 1    
    74   37   38 am   BACKBONE|DICT|INTERRES
    75   37  101 1    
    76   38   39 2    
    77   38   40 1    
    78   40   41 1    
    79   40   42 1    
    80   40  102 1    
    81   41  103 1    
    82   41  104 1    
    83   41  105 1    
    84   42   43 am   BACKBONE|DICT|INTERRES
    85   42  106 1    
    86   43   44 2    
    87   43   45 1    
    88   45   46 1    
    89   45   49 1    
    90   45  107 1    
    91   46   47 1    
    92   46  108 1    
    93   46  109 1    
    94   47   48 1    
    95   48  110 1    
    96   48  111 1    
    97   49   50 am   BACKBONE|DICT|INTERRES
    98   49  112 1    
    99   50   51 2    
   100   50   52 1    
   101   52   53 1    
   102   52   54 1    
   103   52  113 1    
   104   53  114 1    
   105   53  115 1    
   106   53  116 1    
   107   54   55 am   BACKBONE|DICT|INTERRES
   108   54  117 1    
   109   55   56 2    
   110   55   57 1    
   111   57   58 1    
   112   57   59 1    
   113   57  118 1    
   114   58  119 1    
   115   58  120 1    
   116   58  121 1    
   117   59   60 am   BACKBONE|DICT|INTERRES
   118   59  122 1    
   119   60   61 2    
   120   60   62 1    
   121   62   63 1    
   122   62   64 1    
   123   62  123 1    
   124   63  124 1    
   125   63  125 1    
   126   63  126 1    
   127   64   65 am   BACKBONE|DICT|INTERRES
   128   64  127 1    
   129   65   66 2    
@<TRIPOS>SUBSTRUCTURE
     1 UNK         1 GROUP             0       ****    0 ROOT    
