@<TRIPOS>MOLECULE
3R134
127   129    1
SMALL
USER_CHARGES


@<TRIPOS>ATOM
      1 CA         33.5251  -42.0872  -53.1140 C.3       0 UNK        -0.1968 
      2 C          34.6237  -43.1064  -53.3775 C.2       0 UNK         0.4852 
      3 O          35.7298  -42.9673  -52.8520 O.2       0 UNK        -0.5359 
      4 N          34.3263  -44.1212  -54.1971 N.am      1 UNK        -0.4300 
      5 CA         35.2173  -45.2388  -54.5298 C.3       1 UNK         0.0863 
      6 C6         34.8100  -45.9862  -55.8369 C.3       11 UNK        -0.0953 
      7 S7         34.0546  -44.9422  -57.1347 S.3       11 UNK        -0.2369 
      8 C8         32.3123  -45.4821  -57.0736 C.3       11 UNK         0.0226 
      9 C9         31.6064  -45.0206  -55.8048 C.ar      11 UNK        -0.0699 
     10 C10        31.6754  -45.7928  -54.6429 C.ar      11 UNK        -0.0804 
     11 C11        31.0714  -45.3641  -53.4598 C.ar      11 UNK        -0.0871 
     12 C12        30.3649  -44.1589  -53.4513 C.ar      11 UNK        -0.1008 
     13 C13        30.2239  -43.4107  -54.6238 C.ar      11 UNK        -0.0735 
     14 C14        30.8682  -43.8334  -55.7924 C.ar      11 UNK        -0.0945 
     15 C15        29.3277  -42.1775  -54.6436 C.3       11 UNK         0.0169 
     16 S16        27.6297  -42.5313  -54.0593 S.3       11 UNK        -0.2669 
     17 C17        27.1664  -43.9900  -55.0621 C.3       11 UNK        -0.0850 
     18 CA         26.0389  -43.7709  -56.1020 C.3       10 UNK         0.0855 
     19 C          26.4578  -42.7678  -57.2244 C.2       10 UNK         0.5543 
     20 N          26.7670  -43.2048  -58.4398 N.am      10 UNK        -0.7343 
     21 O          26.4791  -41.5611  -56.9973 O.2       10 UNK        -0.5027 
     22 N          25.5908  -45.0856  -56.5822 N.am      10 UNK        -0.4495 
     23 C          24.5551  -45.3323  -57.3924 C.2       10 UNK         0.4903 
     24 O          23.7196  -44.4884  -57.7200 O.2       10 UNK        -0.4860 
     25 CA         24.4791  -46.7702  -57.9497 C.3       9 UNK         0.0227 
     26 CB         23.5679  -46.8878  -59.1890 C.3       9 UNK        -0.1964 
     27 N          25.8098  -47.3356  -58.2249 N.am      9 UNK        -0.4231 
     28 C          26.7582  -46.8325  -59.0330 C.2       9 UNK         0.5014 
     29 O          26.5964  -45.8351  -59.7367 O.2       9 UNK        -0.5270 
     30 CA         28.1459  -47.4997  -59.0165 C.3       8 UNK         0.0284 
     31 CB         29.1657  -46.5760  -58.3309 C.3       8 UNK        -0.1977 
     32 N          28.1684  -48.7986  -58.3430 N.am      8 UNK        -0.4342 
     33 C          27.6887  -49.9365  -58.8621 C.2       8 UNK         0.5039 
     34 O          27.2359  -50.0350  -60.0029 O.2       8 UNK        -0.5547 
     35 CA         27.6712  -51.1598  -57.9316 C.3       7 UNK         0.0281 
     36 CB         29.0408  -51.8566  -57.9124 C.3       7 UNK        -0.1963 
     37 N          27.2736  -50.8101  -56.5649 N.am      7 UNK        -0.4444 
     38 C          26.0459  -50.4032  -56.2109 C.2       7 UNK         0.5104 
     39 O          25.1021  -50.3045  -56.9938 O.2       7 UNK        -0.5100 
     40 CA         25.8453  -50.0050  -54.7406 C.3       6 UNK         0.0396 
     41 CB         25.4714  -51.2319  -53.8945 C.3       6 UNK        -0.1801 
     42 N          27.0224  -49.3517  -54.1644 N.am      6 UNK        -0.4747 
     43 C          27.4439  -48.1205  -54.4897 C.2       6 UNK         0.5012 
     44 O          26.8922  -47.3997  -55.3235 O.2       6 UNK        -0.5003 
     45 CA         28.7179  -47.6293  -53.7760 C.3       5 UNK         0.0782 
     46 C46        28.3661  -47.1828  -52.3314 C.3       11 UNK        -0.0868 
     47 S47        29.6417  -46.4121  -51.2609 S.3       11 UNK        -0.2515 
     48 C48        31.1919  -46.2240  -52.2086 C.3       11 UNK         0.0199 
     49 N          29.7895  -48.6323  -53.8228 N.am      5 UNK        -0.4607 
     50 C          30.3552  -49.1122  -54.9380 C.2       4 UNK         0.5031 
     51 O          29.9615  -48.8093  -56.0651 O.2       4 UNK        -0.5119 
     52 CA         31.5453  -50.0903  -54.7969 C.3       4 UNK         0.0263 
     53 CB         32.4620  -50.0471  -56.0352 C.3       4 UNK        -0.1967 
     54 N          32.3925  -49.9208  -53.6082 N.am      4 UNK        -0.4237 
     55 C          32.0711  -50.1572  -52.3317 C.2       3 UNK         0.4908 
     56 O          30.9290  -50.4363  -51.9667 O.2       3 UNK        -0.5102 
     57 CA         33.1849  -50.0701  -51.2671 C.3       3 UNK         0.0241 
     58 CB         33.6826  -51.4824  -50.9024 C.3       3 UNK        -0.1971 
     59 N          34.3251  -49.1794  -51.5517 N.am      3 UNK        -0.4139 
     60 C          35.2453  -49.2563  -52.5247 C.2       2 UNK         0.5016 
     61 O          35.1912  -50.0494  -53.4660 O.2       2 UNK        -0.5319 
     62 CA         36.4142  -48.2553  -52.4500 C.3       2 UNK         0.0286 
     63 CB         37.7640  -48.9538  -52.6910 C.3       2 UNK        -0.1963 
     64 N          36.2539  -47.1728  -53.4230 N.am      2 UNK        -0.4790 
     65 C          35.3034  -46.2328  -53.3493 C.2       1 UNK         0.5024 
     66 O          34.4964  -46.1699  -52.4179 O.2       1 UNK        -0.4888 
     67 H67        33.0786  -42.2620  -52.1355 H         1 UNK         0.0892 
     68 H68        33.9327  -41.0768  -53.1302 H         1 UNK         0.0892 
     69 H69        32.7370  -42.1422  -53.8644 H         1 UNK         0.0892 
     70 H70        33.3924  -44.1949  -54.5783 H         1 UNK         0.3107 
     71 H71        36.2152  -44.8213  -54.6809 H         1 UNK         0.0773 
     72 H72        35.6992  -46.4425  -56.2749 H         1 UNK         0.0680 
     73 H73        34.1461  -46.8272  -55.6380 H         1 UNK         0.0680 
     74 H74        32.2617  -46.5688  -57.1601 H         1 UNK         0.0650 
     75 H75        31.7977  -45.0837  -57.9490 H         1 UNK         0.0650 
     76 H76        32.2092  -46.7312  -54.6504 H         1 UNK         0.1397 
     77 H77        29.8784  -43.8265  -52.5445 H         1 UNK         0.1363 
     78 H78        30.7780  -43.2508  -56.6991 H         1 UNK         0.1355 
     79 H79        29.2667  -41.7595  -55.6497 H         1 UNK         0.0707 
     80 H80        29.7684  -41.4050  -54.0122 H         1 UNK         0.0707 
     81 H81        28.0370  -44.4146  -55.5617 H         1 UNK         0.1034 
     82 H82        26.8526  -44.7513  -54.3462 H         1 UNK         0.1034 
     83 H83        25.1876  -43.3224  -55.5868 H         1 UNK         0.0482 
     84 H84        26.6919  -44.1848  -58.6909 H         1 UNK         0.3460 
     85 H85        27.0217  -42.5330  -59.1454 H         1 UNK         0.3460 
     86 H86        26.1770  -45.8739  -56.3243 H         1 UNK         0.2989 
     87 H87        24.0462  -47.3834  -57.1581 H         1 UNK         0.0559 
     88 H88        22.5469  -46.5849  -58.9543 H         1 UNK         0.0848 
     89 H89        23.9142  -46.2560  -60.0076 H         1 UNK         0.0848 
     90 H90        23.5250  -47.9146  -59.5523 H         1 UNK         0.0848 
     91 H91        26.0578  -48.1441  -57.6705 H         1 UNK         0.3144 
     92 H92        28.4535  -47.6407  -60.0547 H         1 UNK         0.0727 
     93 H93        30.1653  -47.0074  -58.3707 H         1 UNK         0.0790 
     94 H94        28.9177  -46.4049  -57.2822 H         1 UNK         0.0790 
     95 H95        29.2119  -45.6020  -58.8201 H         1 UNK         0.0790 
     96 H96        28.6031  -48.8219  -57.4225 H         1 UNK         0.3215 
     97 H97        26.9362  -51.8652  -58.3261 H         1 UNK         0.0863 
     98 H98        29.3445  -52.1445  -58.9198 H         1 UNK         0.0808 
     99 H99        29.8187  -51.2076  -57.5118 H         1 UNK         0.0808 
    100 H100       29.0167  -52.7649  -57.3103 H         1 UNK         0.0808 
    101 H101       27.9914  -50.8322  -55.8564 H         1 UNK         0.3118 
    102 H102       25.0129  -49.2988  -54.6996 H         1 UNK         0.0546 
    103 H103       24.5826  -51.7233  -54.2930 H         1 UNK         0.0828 
    104 H104       25.2487  -50.9511  -52.8650 H         1 UNK         0.0828 
    105 H105       26.2718  -51.9727  -53.8756 H         1 UNK         0.0828 
    106 H106       27.5461  -49.8724  -53.4748 H         1 UNK         0.3005 
    107 H107       29.0480  -46.7594  -54.3433 H         1 UNK         0.1257 
    108 H108       27.9741  -48.0336  -51.7708 H         1 UNK         0.0775 
    109 H109       27.5461  -46.4625  -52.3692 H         1 UNK         0.0775 
    110 H110       31.9277  -45.7550  -51.5544 H         1 UNK         0.0840 
    111 H111       31.5958  -47.2082  -52.4412 H         1 UNK         0.0840 
    112 H112       30.1150  -49.0023  -52.9352 H         1 UNK         0.2987 
    113 H113       31.1085  -51.0892  -54.7419 H         1 UNK         0.0785 
    114 H114       31.9147  -50.2676  -56.9518 H         1 UNK         0.0798 
    115 H115       33.2643  -50.7817  -55.9614 H         1 UNK         0.0798 
    116 H116       32.9190  -49.0648  -56.1595 H         1 UNK         0.0798 
    117 H117       33.3831  -49.7722  -53.7859 H         1 UNK         0.3079 
    118 H118       32.7102  -49.6529  -50.3774 H         1 UNK         0.0794 
    119 H119       32.8539  -52.1234  -50.5981 H         1 UNK         0.0786 
    120 H120       34.3883  -51.4524  -50.0721 H         1 UNK         0.0786 
    121 H121       34.1759  -51.9692  -51.7445 H         1 UNK         0.0786 
    122 H122       34.4274  -48.4164  -50.8954 H         1 UNK         0.3032 
    123 H123       36.4404  -47.8194  -51.4484 H         1 UNK         0.1094 
    124 H124       38.5972  -48.2623  -52.5643 H         1 UNK         0.0794 
    125 H125       37.9115  -49.7703  -51.9827 H         1 UNK         0.0794 
    126 H126       37.8295  -49.3781  -53.6939 H         1 UNK         0.0794 
    127 H127       36.8647  -47.1945  -54.2273 H         1 UNK         0.3016 
@<TRIPOS>BOND
     1    1    2 1    
     2    1   67 1    
     3    1   68 1    
     4    1   69 1    
     5    2    3 2    
     6    2    4 am   BACKBONE|DICT|INTERRES
     7    4    5 1    
     8    4   70 1    
     9    5    6 1    
    10    5   65 1    
    11    5   71 1    
    12    6    7 1    
    13    6   72 1    
    14    6   73 1    
    15    7    8 1    
    16    8    9 1    
    17    8   74 1    
    18    8   75 1    
    19    9   10 ar   
    20    9   14 ar   
    21   10   11 ar   
    22   10   76 1    
    23   11   12 ar   
    24   11   48 1    
    25   12   13 ar   
    26   12   77 1    
    27   13   14 ar   
    28   13   15 1    
    29   14   78 1    
    30   15   16 1    
    31   15   79 1    
    32   15   80 1    
    33   16   17 1    
    34   17   18 1    
    35   17   81 1    
    36   17   82 1    
    37   18   19 1    
    38   18   22 1    
    39   18   83 1    
    40   19   20 am   BACKBONE|DICT|INTERRES
    41   19   21 2    
    42   20   84 1    
    43   20   85 1    
    44   22   23 am   BACKBONE|DICT|INTERRES
    45   22   86 1    
    46   23   24 2    
    47   23   25 1    
    48   25   26 1    
    49   25   27 1    
    50   25   87 1    
    51   26   88 1    
    52   26   89 1    
    53   26   90 1    
    54   27   28 am   BACKBONE|DICT|INTERRES
    55   27   91 1    
    56   28   29 2    
    57   28   30 1    
    58   30   31 1    
    59   30   32 1    
    60   30   92 1    
    61   31   93 1    
    62   31   94 1    
    63   31   95 1    
    64   32   33 am   BACKBONE|DICT|INTERRES
    65   32   96 1    
    66   33   34 2    
    67   33   35 1    
    68   35   36 1    
    69   35   37 1    
    70   35   97 1    
    71   36   98 1    
    72   36   99 1    
    73   36  100 1    
    74   37   38 am   BACKBONE|DICT|INTERRES
    75   37  101 1    
    76   38   39 2    
    77   38   40 1    
    78   40   41 1    
    79   40   42 1    
    80   40  102 1    
    81   41  103 1    
    82   41  104 1    
    83   41  105 1    
    84   42   43 am   BACKBONE|DICT|INTERRES
    85   42  106 1    
    86   43   44 2    
    87   43   45 1    
    88   45   46 1    
    89   45   49 1    
    90   45  107 1    
    91   46   47 1    
    92   46  108 1    
    93   46  109 1    
    94   47   48 1    
    95   48  110 1    
    96   48  111 1    
    97   49   50 am   BACKBONE|DICT|INTERRES
    98   49  112 1    
    99   50   51 2    
   100   50   52 1    
   101   52   53 1    
   102   52   54 1    
   103   52  113 1    
   104   53  114 1    
   105   53  115 1    
   106   53  116 1    
   107   54   55 am   BACKBONE|DICT|INTERRES
   108   54  117 1    
   109   55   56 2    
   110   55   57 1    
   111   57   58 1    
   112   57   59 1    
   113   57  118 1    
   114   58  119 1    
   115   58  120 1    
   116   58  121 1    
   117   59   60 am   BACKBONE|DICT|INTERRES
   118   59  122 1    
   119   60   61 2    
   120   60   62 1    
   121   62   63 1    
   122   62   64 1    
   123   62  123 1    
   124   63  124 1    
   125   63  125 1    
   126   63  126 1    
   127   64   65 am   BACKBONE|DICT|INTERRES
   128   64  127 1    
   129   65   66 2    
@<TRIPOS>SUBSTRUCTURE
     1 UNK         1 GROUP             0       ****    0 ROOT    
