@<TRIPOS>MOLECULE
3R134
127   129    1
SMALL
USER_CHARGES


@<TRIPOS>ATOM
      1 CA         29.2690  -44.9397  -52.4217 C.3       0 UNK        -0.1968 
      2 C          30.5740  -45.4096  -51.8011 C.2       0 UNK         0.4852 
      3 O          30.5565  -46.1324  -50.8039 O.2       0 UNK        -0.5359 
      4 N          31.7041  -44.9801  -52.3732 N.am      1 UNK        -0.4300 
      5 CA         33.0536  -45.3092  -51.9073 C.3       1 UNK         0.0863 
      6 C6         34.1119  -44.3382  -52.4876 C.3       11 UNK        -0.0953 
      7 S7         33.7329  -42.5911  -52.1045 S.3       11 UNK        -0.2369 
      8 C8         34.1457  -41.7353  -53.6594 C.3       11 UNK         0.0226 
      9 C9         33.1912  -42.0808  -54.7946 C.ar      11 UNK        -0.0699 
     10 C10        33.5755  -43.0014  -55.7738 C.ar      11 UNK        -0.0804 
     11 C11        32.7076  -43.3309  -56.8170 C.ar      11 UNK        -0.0871 
     12 C12        31.4696  -42.6923  -56.9097 C.ar      11 UNK        -0.1008 
     13 C13        31.0646  -41.7818  -55.9314 C.ar      11 UNK        -0.0735 
     14 C14        31.9310  -41.4764  -54.8753 C.ar      11 UNK        -0.0945 
     15 C15        29.6911  -41.1321  -56.0250 C.3       11 UNK         0.0169 
     16 S16        28.4456  -41.9938  -55.0095 S.3       11 UNK        -0.2669 
     17 C17        28.2136  -43.5864  -55.8789 C.3       11 UNK        -0.0850 
     18 CA         26.8346  -43.7179  -56.5850 C.3       10 UNK         0.0855 
     19 C          26.8843  -43.2654  -58.0768 C.2       10 UNK         0.5543 
     20 N          26.5244  -44.0996  -59.0463 N.am      10 UNK        -0.7343 
     21 O          27.2475  -42.1285  -58.3641 O.2       10 UNK        -0.5027 
     22 N          26.2672  -45.0607  -56.3810 N.am      10 UNK        -0.4495 
     23 C          24.9593  -45.3457  -56.4215 C.2       10 UNK         0.4903 
     24 O          24.0801  -44.4932  -56.5601 O.2       10 UNK        -0.4860 
     25 CA         24.5719  -46.8316  -56.2859 C.3       9 UNK         0.0227 
     26 CB         23.1184  -47.1142  -56.7216 C.3       9 UNK        -0.1964 
     27 N          25.4967  -47.7485  -56.9646 N.am      9 UNK        -0.4231 
     28 C          25.8206  -47.7682  -58.2681 C.2       9 UNK         0.5014 
     29 O          25.3955  -46.9462  -59.0818 O.2       9 UNK        -0.5270 
     30 CA         26.7968  -48.8576  -58.7649 C.3       8 UNK         0.0284 
     31 CB         28.0121  -48.2172  -59.4572 C.3       8 UNK        -0.1977 
     32 N          27.2697  -49.7646  -57.7139 N.am      8 UNK        -0.4342 
     33 C          26.5602  -50.7659  -57.1751 C.2       8 UNK         0.5039 
     34 O          25.4455  -51.1060  -57.5719 O.2       8 UNK        -0.5547 
     35 CA         27.1705  -51.4614  -55.9435 C.3       7 UNK         0.0281 
     36 CB         28.0955  -52.6145  -56.3635 C.3       7 UNK        -0.1963 
     37 N          27.8986  -50.5336  -55.0698 N.am      7 UNK        -0.4444 
     38 C          27.3415  -49.4958  -54.4276 C.2       7 UNK         0.5104 
     39 O          26.1366  -49.2486  -54.4475 O.2       7 UNK        -0.5100 
     40 CA         28.2913  -48.5266  -53.7076 C.3       6 UNK         0.0396 
     41 CB         28.7045  -49.0699  -52.3310 C.3       6 UNK        -0.1801 
     42 N          29.4775  -48.2316  -54.5151 N.am      6 UNK        -0.4747 
     43 C          29.4659  -47.5047  -55.6439 C.2       6 UNK         0.5012 
     44 O          28.4686  -46.9175  -56.0644 O.2       6 UNK        -0.5003 
     45 CA         30.7743  -47.4477  -56.4584 C.3       5 UNK         0.0782 
     46 C46        31.5729  -46.1711  -56.1217 C.3       11 UNK        -0.0868 
     47 S47        33.1691  -46.0582  -57.0101 S.3       11 UNK        -0.2515 
     48 C48        33.0769  -44.4214  -57.8116 C.3       11 UNK         0.0199 
     49 N          31.5617  -48.6745  -56.3033 N.am      5 UNK        -0.4607 
     50 C          31.2257  -49.8390  -56.8721 C.2       4 UNK         0.5031 
     51 O          30.2165  -49.9911  -57.5599 O.2       4 UNK        -0.5119 
     52 CA         32.1426  -51.0416  -56.5960 C.3       4 UNK         0.0263 
     53 CB         33.3681  -51.0073  -57.5231 C.3       4 UNK        -0.1967 
     54 N          32.5823  -51.1405  -55.1994 N.am      4 UNK        -0.4237 
     55 C          31.7539  -51.2794  -54.1521 C.2       3 UNK         0.4908 
     56 O          30.5281  -51.3046  -54.2538 O.2       3 UNK        -0.5102 
     57 CA         32.3878  -51.3786  -52.7607 C.3       3 UNK         0.0241 
     58 CB         32.9172  -52.7971  -52.4865 C.3       3 UNK        -0.1971 
     59 N          33.4547  -50.3912  -52.6023 N.am      3 UNK        -0.4139 
     60 C          33.7704  -49.7734  -51.4587 C.2       2 UNK         0.5016 
     61 O          33.2295  -50.0054  -50.3761 O.2       2 UNK        -0.5319 
     62 CA         34.8763  -48.7013  -51.5257 C.3       2 UNK         0.0286 
     63 CB         35.7977  -48.8192  -52.7632 C.3       2 UNK        -0.1963 
     64 N          34.3294  -47.3426  -51.4194 N.am      2 UNK        -0.4790 
     65 C          33.4217  -46.7741  -52.2280 C.2       1 UNK         0.5024 
     66 O          32.9217  -47.3410  -53.2037 O.2       1 UNK        -0.4888 
     67 H67        28.4789  -44.9019  -51.6723 H         1 UNK         0.0892 
     68 H68        29.3739  -43.9426  -52.8482 H         1 UNK         0.0892 
     69 H69        28.9612  -45.6239  -53.2089 H         1 UNK         0.0892 
     70 H70        31.6630  -44.3815  -53.1851 H         1 UNK         0.3107 
     71 H71        33.0581  -45.1988  -50.8204 H         1 UNK         0.0773 
     72 H72        35.0993  -44.5581  -52.0775 H         1 UNK         0.0680 
     73 H73        34.1968  -44.4762  -53.5652 H         1 UNK         0.0680 
     74 H74        35.1751  -41.9702  -53.9348 H         1 UNK         0.0650 
     75 H75        34.1181  -40.6592  -53.4824 H         1 UNK         0.0650 
     76 H76        34.5393  -43.4882  -55.7108 H         1 UNK         0.1397 
     77 H77        30.8037  -42.9315  -57.7276 H         1 UNK         0.1363 
     78 H78        31.6243  -40.7705  -54.1155 H         1 UNK         0.1355 
     79 H79        29.3547  -41.0919  -57.0617 H         1 UNK         0.0707 
     80 H80        29.7574  -40.0959  -55.6902 H         1 UNK         0.0707 
     81 H81        29.0290  -43.7868  -56.5707 H         1 UNK         0.1034 
     82 H82        28.3106  -44.3529  -55.1113 H         1 UNK         0.1034 
     83 H83        26.1494  -43.0215  -56.0979 H         1 UNK         0.0482 
     84 H84        26.1822  -45.0308  -58.8408 H         1 UNK         0.3460 
     85 H85        26.5591  -43.7817  -60.0015 H         1 UNK         0.3460 
     86 H86        26.9377  -45.8204  -56.2900 H         1 UNK         0.2989 
     87 H87        24.6451  -47.0620  -55.2225 H         1 UNK         0.0559 
     88 H88        22.4105  -46.5328  -56.1296 H         1 UNK         0.0848 
     89 H89        22.8623  -48.1652  -56.5885 H         1 UNK         0.0848 
     90 H90        22.9538  -46.8586  -57.7690 H         1 UNK         0.0848 
     91 H91        25.9181  -48.4436  -56.3590 H         1 UNK         0.3144 
     92 H92        26.2607  -49.4510  -59.5082 H         1 UNK         0.0727 
     93 H93        28.5356  -47.5309  -58.7929 H         1 UNK         0.0790 
     94 H94        27.7058  -47.6454  -60.3342 H         1 UNK         0.0790 
     95 H95        28.7238  -48.9705  -59.7960 H         1 UNK         0.0790 
     96 H96        28.2197  -49.6228  -57.3844 H         1 UNK         0.3215 
     97 H97        26.3468  -51.8812  -55.3620 H         1 UNK         0.0863 
     98 H98        28.4865  -53.1453  -55.4952 H         1 UNK         0.0808 
     99 H99        28.9447  -52.2617  -56.9484 H         1 UNK         0.0808 
    100 H100       27.5586  -53.3414  -56.9744 H         1 UNK         0.0808 
    101 H101       28.8943  -50.7044  -54.9430 H         1 UNK         0.3118 
    102 H102       27.7474  -47.5936  -53.5486 H         1 UNK         0.0546 
    103 H103       29.2107  -50.0319  -52.4020 H         1 UNK         0.0828 
    104 H104       27.8305  -49.2123  -51.6944 H         1 UNK         0.0828 
    105 H105       29.3710  -48.3802  -51.8141 H         1 UNK         0.0828 
    106 H106       30.3370  -48.6923  -54.2512 H         1 UNK         0.3005 
    107 H107       30.4877  -47.3755  -57.5094 H         1 UNK         0.1257 
    108 H108       30.9587  -45.3035  -56.3578 H         1 UNK         0.0775 
    109 H109       31.7771  -46.1041  -55.0547 H         1 UNK         0.0775 
    110 H110       34.0414  -44.1894  -58.2652 H         1 UNK         0.0840 
    111 H111       32.3551  -44.4674  -58.6286 H         1 UNK         0.0840 
    112 H112       32.4047  -48.6048  -55.7515 H         1 UNK         0.2987 
    113 H113       31.5707  -51.9440  -56.8231 H         1 UNK         0.0785 
    114 H114       33.0632  -50.9508  -58.5692 H         1 UNK         0.0798 
    115 H115       33.9747  -51.9065  -57.4141 H         1 UNK         0.0798 
    116 H116       34.0049  -50.1445  -57.3232 H         1 UNK         0.0798 
    117 H117       33.5783  -51.1926  -55.0491 H         1 UNK         0.3079 
    118 H118       31.5957  -51.1622  -52.0400 H         1 UNK         0.0794 
    119 H119       33.2758  -52.8928  -51.4614 H         1 UNK         0.0786 
    120 H120       33.7388  -53.0604  -53.1535 H         1 UNK         0.0786 
    121 H121       32.1308  -53.5407  -52.6241 H         1 UNK         0.0786 
    122 H122       33.9057  -50.0622  -53.4425 H         1 UNK         0.3032 
    123 H123       35.4977  -48.8595  -50.6423 H         1 UNK         0.1094 
    124 H124       36.2237  -49.8204  -52.8437 H         1 UNK         0.0794 
    125 H125       35.2797  -48.6001  -53.6973 H         1 UNK         0.0794 
    126 H126       36.6352  -48.1254  -52.6883 H         1 UNK         0.0794 
    127 H127       34.6618  -46.8070  -50.6288 H         1 UNK         0.3016 
@<TRIPOS>BOND
     1    1    2 1    
     2    1   67 1    
     3    1   68 1    
     4    1   69 1    
     5    2    3 2    
     6    2    4 am   BACKBONE|DICT|INTERRES
     7    4    5 1    
     8    4   70 1    
     9    5    6 1    
    10    5   65 1    
    11    5   71 1    
    12    6    7 1    
    13    6   72 1    
    14    6   73 1    
    15    7    8 1    
    16    8    9 1    
    17    8   74 1    
    18    8   75 1    
    19    9   10 ar   
    20    9   14 ar   
    21   10   11 ar   
    22   10   76 1    
    23   11   12 ar   
    24   11   48 1    
    25   12   13 ar   
    26   12   77 1    
    27   13   14 ar   
    28   13   15 1    
    29   14   78 1    
    30   15   16 1    
    31   15   79 1    
    32   15   80 1    
    33   16   17 1    
    34   17   18 1    
    35   17   81 1    
    36   17   82 1    
    37   18   19 1    
    38   18   22 1    
    39   18   83 1    
    40   19   20 am   BACKBONE|DICT|INTERRES
    41   19   21 2    
    42   20   84 1    
    43   20   85 1    
    44   22   23 am   BACKBONE|DICT|INTERRES
    45   22   86 1    
    46   23   24 2    
    47   23   25 1    
    48   25   26 1    
    49   25   27 1    
    50   25   87 1    
    51   26   88 1    
    52   26   89 1    
    53   26   90 1    
    54   27   28 am   BACKBONE|DICT|INTERRES
    55   27   91 1    
    56   28   29 2    
    57   28   30 1    
    58   30   31 1    
    59   30   32 1    
    60   30   92 1    
    61   31   93 1    
    62   31   94 1    
    63   31   95 1    
    64   32   33 am   BACKBONE|DICT|INTERRES
    65   32   96 1    
    66   33   34 2    
    67   33   35 1    
    68   35   36 1    
    69   35   37 1    
    70   35   97 1    
    71   36   98 1    
    72   36   99 1    
    73   36  100 1    
    74   37   38 am   BACKBONE|DICT|INTERRES
    75   37  101 1    
    76   38   39 2    
    77   38   40 1    
    78   40   41 1    
    79   40   42 1    
    80   40  102 1    
    81   41  103 1    
    82   41  104 1    
    83   41  105 1    
    84   42   43 am   BACKBONE|DICT|INTERRES
    85   42  106 1    
    86   43   44 2    
    87   43   45 1    
    88   45   46 1    
    89   45   49 1    
    90   45  107 1    
    91   46   47 1    
    92   46  108 1    
    93   46  109 1    
    94   47   48 1    
    95   48  110 1    
    96   48  111 1    
    97   49   50 am   BACKBONE|DICT|INTERRES
    98   49  112 1    
    99   50   51 2    
   100   50   52 1    
   101   52   53 1    
   102   52   54 1    
   103   52  113 1    
   104   53  114 1    
   105   53  115 1    
   106   53  116 1    
   107   54   55 am   BACKBONE|DICT|INTERRES
   108   54  117 1    
   109   55   56 2    
   110   55   57 1    
   111   57   58 1    
   112   57   59 1    
   113   57  118 1    
   114   58  119 1    
   115   58  120 1    
   116   58  121 1    
   117   59   60 am   BACKBONE|DICT|INTERRES
   118   59  122 1    
   119   60   61 2    
   120   60   62 1    
   121   62   63 1    
   122   62   64 1    
   123   62  123 1    
   124   63  124 1    
   125   63  125 1    
   126   63  126 1    
   127   64   65 am   BACKBONE|DICT|INTERRES
   128   64  127 1    
   129   65   66 2    
@<TRIPOS>SUBSTRUCTURE
     1 UNK         1 GROUP             0       ****    0 ROOT    
