@<TRIPOS>MOLECULE
3R134
127   129    1
SMALL
USER_CHARGES


@<TRIPOS>ATOM
      1 CA         37.3889  -46.1662  -56.5728 C.3       0 UNK        -0.1968 
      2 C          36.0363  -46.0833  -55.8807 C.2       0 UNK         0.4852 
      3 O          35.0588  -46.6330  -56.3862 O.2       0 UNK        -0.5359 
      4 N          35.9762  -45.3972  -54.7322 N.am      1 UNK        -0.4300 
      5 CA         34.7662  -45.2158  -53.9184 C.3       1 UNK         0.0863 
      6 C6         34.9222  -44.0252  -52.9408 C.3       11 UNK        -0.0953 
      7 S7         35.0815  -42.4409  -53.8340 S.3       11 UNK        -0.2369 
      8 C8         33.6945  -41.4673  -53.1643 C.3       11 UNK         0.0226 
      9 C9         32.3367  -42.0843  -53.4732 C.ar      11 UNK        -0.0699 
     10 C10        31.5969  -42.6964  -52.4567 C.ar      11 UNK        -0.0804 
     11 C11        30.3462  -43.2583  -52.7265 C.ar      11 UNK        -0.0871 
     12 C12        29.8272  -43.1912  -54.0218 C.ar      11 UNK        -0.1008 
     13 C13        30.5553  -42.5788  -55.0466 C.ar      11 UNK        -0.0735 
     14 C14        31.8105  -42.0278  -54.7677 C.ar      11 UNK        -0.0945 
     15 C15        29.9729  -42.5081  -56.4487 C.3       11 UNK         0.0169 
     16 S16        29.9385  -44.1505  -57.2253 S.3       11 UNK        -0.2669 
     17 C17        29.0273  -43.7799  -58.7632 C.3       11 UNK        -0.0850 
     18 CA         27.4839  -43.7206  -58.5880 C.3       10 UNK         0.0855 
     19 C          26.7958  -43.5077  -59.9695 C.2       10 UNK         0.5543 
     20 N          26.0640  -44.4763  -60.5101 N.am      10 UNK        -0.7343 
     21 O          26.9342  -42.4403  -60.5613 O.2       10 UNK        -0.5027 
     22 N          26.9791  -44.8661  -57.8193 N.am      10 UNK        -0.4495 
     23 C          25.7428  -45.0029  -57.3227 C.2       10 UNK         0.4903 
     24 O          24.8890  -44.1156  -57.3526 O.2       10 UNK        -0.4860 
     25 CA         25.4124  -46.3747  -56.6986 C.3       9 UNK         0.0227 
     26 CB         23.9101  -46.7190  -56.7630 C.3       9 UNK        -0.1964 
     27 N          26.2273  -47.4642  -57.2549 N.am      9 UNK        -0.4231 
     28 C          26.2868  -47.8647  -58.5357 C.2       9 UNK         0.5014 
     29 O          25.5871  -47.3970  -59.4354 O.2       9 UNK        -0.5270 
     30 CA         27.3456  -48.9177  -58.8913 C.3       8 UNK         0.0284 
     31 CB         28.6463  -48.2255  -59.3369 C.3       8 UNK        -0.1977 
     32 N          27.6372  -49.8099  -57.7651 N.am      8 UNK        -0.4342 
     33 C          27.3912  -51.1259  -57.7548 C.2       8 UNK         0.5039 
     34 O          26.8921  -51.7407  -58.6987 O.2       8 UNK        -0.5547 
     35 CA         27.7749  -51.9032  -56.4851 C.3       7 UNK         0.0281 
     36 CB         29.2369  -52.3737  -56.5597 C.3       7 UNK        -0.1963 
     37 N          27.5627  -51.1596  -55.2406 N.am      7 UNK        -0.4444 
     38 C          26.3565  -50.8824  -54.7228 C.2       7 UNK         0.5104 
     39 O          25.2935  -51.1405  -55.2876 O.2       7 UNK        -0.5100 
     40 CA         26.3227  -50.2309  -53.3324 C.3       6 UNK         0.0396 
     41 CB         26.5210  -51.2952  -52.2409 C.3       6 UNK        -0.1801 
     42 N          27.3566  -49.2064  -53.1964 N.am      6 UNK        -0.4747 
     43 C          27.1298  -47.8850  -53.1707 C.2       6 UNK         0.5012 
     44 O          26.0082  -47.3782  -53.1972 O.2       6 UNK        -0.5003 
     45 CA         28.3692  -46.9651  -53.1064 C.3       5 UNK         0.0782 
     46 C46        28.6769  -46.6376  -51.6220 C.3       11 UNK        -0.0868 
     47 S47        30.1809  -45.6400  -51.3725 S.3       11 UNK        -0.2515 
     48 C48        29.5667  -43.9459  -51.6180 C.3       11 UNK         0.0199 
     49 N          29.5353  -47.5085  -53.8158 N.am      5 UNK        -0.4607 
     50 C          29.5631  -47.9096  -55.0944 C.2       4 UNK         0.5031 
     51 O          28.5984  -47.8519  -55.8562 O.2       4 UNK        -0.5119 
     52 CA         30.8556  -48.5672  -55.5979 C.3       4 UNK         0.0263 
     53 CB         31.7818  -47.5081  -56.2098 C.3       4 UNK        -0.1967 
     54 N          31.5891  -49.3356  -54.5862 N.am      4 UNK        -0.4237 
     55 C          31.1045  -50.2974  -53.7873 C.2       3 UNK         0.4908 
     56 O          29.9201  -50.6392  -53.7764 O.2       3 UNK        -0.5102 
     57 CA         32.0804  -50.9861  -52.8121 C.3       3 UNK         0.0241 
     58 CB         32.6126  -52.3012  -53.4139 C.3       3 UNK        -0.1971 
     59 N          33.1750  -50.1370  -52.3081 N.am      3 UNK        -0.4139 
     60 C          34.1941  -49.5909  -52.9873 C.2       2 UNK         0.5016 
     61 O          34.3895  -49.7569  -54.1931 O.2       2 UNK        -0.5319 
     62 CA         35.1340  -48.6660  -52.1956 C.3       2 UNK         0.0286 
     63 CB         36.4955  -49.3423  -51.9675 C.3       2 UNK        -0.1963 
     64 N          35.3375  -47.3877  -52.8843 N.am      2 UNK        -0.4790 
     65 C          34.3695  -46.4959  -53.1514 C.2       1 UNK         0.5024 
     66 O          33.1978  -46.6492  -52.8068 O.2       1 UNK        -0.4888 
     67 H67        37.3250  -45.7372  -57.5725 H         1 UNK         0.0892 
     68 H68        38.1632  -45.6311  -56.0235 H         1 UNK         0.0892 
     69 H69        37.6978  -47.2069  -56.6677 H         1 UNK         0.0892 
     70 H70        36.8069  -44.9406  -54.3831 H         1 UNK         0.3107 
     71 H71        33.9353  -44.9916  -54.5920 H         1 UNK         0.0773 
     72 H72        34.0730  -43.9709  -52.2585 H         1 UNK         0.0680 
     73 H73        35.8024  -44.1564  -52.3089 H         1 UNK         0.0680 
     74 H74        33.8311  -41.3487  -52.0882 H         1 UNK         0.0650 
     75 H75        33.7357  -40.4628  -53.5878 H         1 UNK         0.0650 
     76 H76        31.9985  -42.7482  -51.4539 H         1 UNK         0.1397 
     77 H77        28.8610  -43.6245  -54.2407 H         1 UNK         0.1363 
     78 H78        32.3806  -41.5543  -55.5554 H         1 UNK         0.1355 
     79 H79        28.9600  -42.1069  -56.3940 H         1 UNK         0.0707 
     80 H80        30.5473  -41.8240  -57.0754 H         1 UNK         0.0707 
     81 H81        29.4014  -42.8420  -59.1787 H         1 UNK         0.1034 
     82 H82        29.2924  -44.5522  -59.4881 H         1 UNK         0.1034 
     83 H83        27.2533  -42.8310  -57.9994 H         1 UNK         0.0482 
     84 H84        25.9356  -45.3612  -60.0346 H         1 UNK         0.3460 
     85 H85        25.6256  -44.3205  -61.4037 H         1 UNK         0.3460 
     86 H86        27.6236  -45.6347  -57.7106 H         1 UNK         0.2989 
     87 H87        25.6892  -46.2974  -55.6472 H         1 UNK         0.0559 
     88 H88        23.3157  -45.9792  -56.2256 H         1 UNK         0.0848 
     89 H89        23.7073  -47.6881  -56.3070 H         1 UNK         0.0848 
     90 H90        23.5435  -46.7464  -57.7895 H         1 UNK         0.0848 
     91 H91        26.9411  -47.8190  -56.6230 H         1 UNK         0.3144 
     92 H92        26.9582  -49.4839  -59.7408 H         1 UNK         0.0727 
     93 H93        29.0863  -47.6266  -58.5387 H         1 UNK         0.0790 
     94 H94        28.4648  -47.5592  -60.1816 H         1 UNK         0.0790 
     95 H95        29.3913  -48.9547  -59.6553 H         1 UNK         0.0790 
     96 H96        28.0389  -49.3789  -56.9390 H         1 UNK         0.3215 
     97 H97        27.1419  -52.7928  -56.4484 H         1 UNK         0.0863 
     98 H98        29.4997  -52.9909  -55.7002 H         1 UNK         0.0808 
     99 H99        29.9329  -51.5361  -56.5937 H         1 UNK         0.0808 
    100 H100       29.4077  -52.9748  -57.4539 H         1 UNK         0.0808 
    101 H101       28.3945  -50.9442  -54.6940 H         1 UNK         0.3118 
    102 H102       25.3311  -49.7939  -53.1965 H         1 UNK         0.0546 
    103 H103       27.4993  -51.7727  -52.3117 H         1 UNK         0.0828 
    104 H104       25.7673  -52.0800  -52.3187 H         1 UNK         0.0828 
    105 H105       26.4332  -50.8601  -51.2453 H         1 UNK         0.0828 
    106 H106       28.3185  -49.5304  -53.2037 H         1 UNK         0.3005 
    107 H107       28.1002  -46.0378  -53.6160 H         1 UNK         0.1257 
    108 H108       27.8322  -46.1272  -51.1546 H         1 UNK         0.0775 
    109 H109       28.8160  -47.5603  -51.0546 H         1 UNK         0.0775 
    110 H110       28.5007  -43.9484  -51.8498 H         1 UNK         0.0840 
    111 H111       29.6734  -43.3889  -50.6860 H         1 UNK         0.0840 
    112 H112       30.3882  -47.5685  -53.2768 H         1 UNK         0.2987 
    113 H113       30.5765  -49.2650  -56.3883 H         1 UNK         0.0785 
    114 H114       31.2759  -46.9552  -57.0023 H         1 UNK         0.0798 
    115 H115       32.6687  -47.9635  -56.6505 H         1 UNK         0.0798 
    116 H116       32.1126  -46.7818  -55.4662 H         1 UNK         0.0798 
    117 H117       32.5927  -49.1807  -54.5429 H         1 UNK         0.3079 
    118 H118       31.4893  -51.2486  -51.9332 H         1 UNK         0.0794 
    119 H119       33.2424  -52.8363  -52.7033 H         1 UNK         0.0786 
    120 H120       33.1967  -52.1311  -54.3188 H         1 UNK         0.0786 
    121 H121       31.7900  -52.9657  -53.6824 H         1 UNK         0.0786 
    122 H122       33.0986  -49.9034  -51.3273 H         1 UNK         0.3032 
    123 H123       34.6866  -48.4503  -51.2226 H         1 UNK         0.1094 
    124 H124       37.0009  -49.5591  -52.9097 H         1 UNK         0.0794 
    125 H125       37.1560  -48.7160  -51.3674 H         1 UNK         0.0794 
    126 H126       36.3772  -50.2881  -51.4368 H         1 UNK         0.0794 
    127 H127       36.2649  -47.2030  -53.2366 H         1 UNK         0.3016 
@<TRIPOS>BOND
     1    1    2 1    
     2    1   67 1    
     3    1   68 1    
     4    1   69 1    
     5    2    3 2    
     6    2    4 am   BACKBONE|DICT|INTERRES
     7    4    5 1    
     8    4   70 1    
     9    5    6 1    
    10    5   65 1    
    11    5   71 1    
    12    6    7 1    
    13    6   72 1    
    14    6   73 1    
    15    7    8 1    
    16    8    9 1    
    17    8   74 1    
    18    8   75 1    
    19    9   10 ar   
    20    9   14 ar   
    21   10   11 ar   
    22   10   76 1    
    23   11   12 ar   
    24   11   48 1    
    25   12   13 ar   
    26   12   77 1    
    27   13   14 ar   
    28   13   15 1    
    29   14   78 1    
    30   15   16 1    
    31   15   79 1    
    32   15   80 1    
    33   16   17 1    
    34   17   18 1    
    35   17   81 1    
    36   17   82 1    
    37   18   19 1    
    38   18   22 1    
    39   18   83 1    
    40   19   20 am   BACKBONE|DICT|INTERRES
    41   19   21 2    
    42   20   84 1    
    43   20   85 1    
    44   22   23 am   BACKBONE|DICT|INTERRES
    45   22   86 1    
    46   23   24 2    
    47   23   25 1    
    48   25   26 1    
    49   25   27 1    
    50   25   87 1    
    51   26   88 1    
    52   26   89 1    
    53   26   90 1    
    54   27   28 am   BACKBONE|DICT|INTERRES
    55   27   91 1    
    56   28   29 2    
    57   28   30 1    
    58   30   31 1    
    59   30   32 1    
    60   30   92 1    
    61   31   93 1    
    62   31   94 1    
    63   31   95 1    
    64   32   33 am   BACKBONE|DICT|INTERRES
    65   32   96 1    
    66   33   34 2    
    67   33   35 1    
    68   35   36 1    
    69   35   37 1    
    70   35   97 1    
    71   36   98 1    
    72   36   99 1    
    73   36  100 1    
    74   37   38 am   BACKBONE|DICT|INTERRES
    75   37  101 1    
    76   38   39 2    
    77   38   40 1    
    78   40   41 1    
    79   40   42 1    
    80   40  102 1    
    81   41  103 1    
    82   41  104 1    
    83   41  105 1    
    84   42   43 am   BACKBONE|DICT|INTERRES
    85   42  106 1    
    86   43   44 2    
    87   43   45 1    
    88   45   46 1    
    89   45   49 1    
    90   45  107 1    
    91   46   47 1    
    92   46  108 1    
    93   46  109 1    
    94   47   48 1    
    95   48  110 1    
    96   48  111 1    
    97   49   50 am   BACKBONE|DICT|INTERRES
    98   49  112 1    
    99   50   51 2    
   100   50   52 1    
   101   52   53 1    
   102   52   54 1    
   103   52  113 1    
   104   53  114 1    
   105   53  115 1    
   106   53  116 1    
   107   54   55 am   BACKBONE|DICT|INTERRES
   108   54  117 1    
   109   55   56 2    
   110   55   57 1    
   111   57   58 1    
   112   57   59 1    
   113   57  118 1    
   114   58  119 1    
   115   58  120 1    
   116   58  121 1    
   117   59   60 am   BACKBONE|DICT|INTERRES
   118   59  122 1    
   119   60   61 2    
   120   60   62 1    
   121   62   63 1    
   122   62   64 1    
   123   62  123 1    
   124   63  124 1    
   125   63  125 1    
   126   63  126 1    
   127   64   65 am   BACKBONE|DICT|INTERRES
   128   64  127 1    
   129   65   66 2    
@<TRIPOS>SUBSTRUCTURE
     1 UNK         1 GROUP             0       ****    0 ROOT    
