@<TRIPOS>MOLECULE
3R134
127   129    1
SMALL
USER_CHARGES


@<TRIPOS>ATOM
      1 CA         29.9511  -44.9699  -52.7057 C.3       0 UNK        -0.1968 
      2 C          31.1686  -45.1667  -51.8177 C.2       0 UNK         0.4852 
      3 O          31.0567  -45.7739  -50.7525 O.2       0 UNK        -0.5359 
      4 N          32.3302  -44.6563  -52.2475 N.am      1 UNK        -0.4300 
      5 CA         33.5955  -44.7145  -51.5012 C.3       1 UNK         0.0863 
      6 C6         34.5786  -43.6007  -51.9381 C.3       11 UNK        -0.0953 
      7 S7         33.8645  -41.9308  -51.7547 S.3       11 UNK        -0.2369 
      8 C8         34.0372  -41.2541  -53.4351 C.3       11 UNK         0.0226 
      9 C9         33.0673  -41.8864  -54.4238 C.ar      11 UNK        -0.0699 
     10 C10        33.5062  -42.8819  -55.3045 C.ar      11 UNK        -0.0804 
     11 C11        32.6305  -43.4292  -56.2457 C.ar      11 UNK        -0.0871 
     12 C12        31.3204  -42.9539  -56.3193 C.ar      11 UNK        -0.1008 
     13 C13        30.8603  -41.9796  -55.4329 C.ar      11 UNK        -0.0735 
     14 C14        31.7387  -41.4483  -54.4832 C.ar      11 UNK        -0.0945 
     15 C15        29.4226  -41.4935  -55.5396 C.3       11 UNK         0.0169 
     16 S16        28.2343  -42.7868  -55.0415 S.3       11 UNK        -0.2669 
     17 C17        26.9163  -42.5817  -56.2935 C.3       11 UNK        -0.0850 
     18 CA         26.8307  -43.7364  -57.3308 C.3       10 UNK         0.0855 
     19 C          28.1050  -43.8945  -58.2049 C.2       10 UNK         0.5543 
     20 N          28.7434  -45.0585  -58.2569 N.am      10 UNK        -0.7343 
     21 O          28.5088  -42.9462  -58.8728 O.2       10 UNK        -0.5027 
     22 N          26.3449  -44.9961  -56.7473 N.am      10 UNK        -0.4495 
     23 C          25.0529  -45.3206  -56.6273 C.2       10 UNK         0.4903 
     24 O          24.1247  -44.5483  -56.8765 O.2       10 UNK        -0.4860 
     25 CA         24.7571  -46.7632  -56.1791 C.3       9 UNK         0.0227 
     26 CB         23.2557  -47.1176  -56.2157 C.3       9 UNK        -0.1964 
     27 N          25.5412  -47.7519  -56.9281 N.am      9 UNK        -0.4231 
     28 C          25.5597  -47.9718  -58.2530 C.2       9 UNK         0.5014 
     29 O          24.8582  -47.3638  -59.0625 O.2       9 UNK        -0.5270 
     30 CA         26.5319  -49.0492  -58.7788 C.3       8 UNK         0.0284 
     31 CB         27.7159  -48.4003  -59.5143 C.3       8 UNK        -0.1977 
     32 N          27.0508  -49.9358  -57.7330 N.am      8 UNK        -0.4342 
     33 C          26.3348  -50.8881  -57.1188 C.2       8 UNK         0.5039 
     34 O          25.1876  -51.1991  -57.4411 O.2       8 UNK        -0.5547 
     35 CA         26.9923  -51.5754  -55.9104 C.3       7 UNK         0.0281 
     36 CB         27.8989  -52.7283  -56.3695 C.3       7 UNK        -0.1963 
     37 N          27.7524  -50.6417  -55.0710 N.am      7 UNK        -0.4444 
     38 C          27.2148  -49.6172  -54.3915 C.2       7 UNK         0.5104 
     39 O          26.0083  -49.3815  -54.3549 O.2       7 UNK        -0.5100 
     40 CA         28.1787  -48.6585  -53.6754 C.3       6 UNK         0.0396 
     41 CB         28.6081  -49.2226  -52.3129 C.3       6 UNK        -0.1801 
     42 N          29.3644  -48.3543  -54.4733 N.am      6 UNK        -0.4747 
     43 C          29.3753  -47.6521  -55.6162 C.2       6 UNK         0.5012 
     44 O          28.3822  -47.1266  -56.1251 O.2       6 UNK        -0.5003 
     45 CA         30.7431  -47.5289  -56.3121 C.3       5 UNK         0.0782 
     46 C46        31.5528  -46.3933  -55.6470 C.3       11 UNK        -0.0868 
     47 S47        33.2232  -46.1477  -56.3407 S.3       11 UNK        -0.2515 
     48 C48        33.0851  -44.5378  -57.1855 C.3       11 UNK         0.0199 
     49 N          31.4550  -48.8092  -56.3120 N.am      5 UNK        -0.4607 
     50 C          31.0466  -49.9117  -56.9543 C.2       4 UNK         0.5031 
     51 O          30.0271  -49.9667  -57.6425 O.2       4 UNK        -0.5119 
     52 CA         31.8996  -51.1758  -56.7569 C.3       4 UNK         0.0263 
     53 CB         33.1133  -51.1615  -57.6997 C.3       4 UNK        -0.1967 
     54 N          32.3522  -51.3388  -55.3719 N.am      4 UNK        -0.4237 
     55 C          31.5341  -51.5655  -54.3336 C.2       3 UNK         0.4908 
     56 O          30.3172  -51.7065  -54.4399 O.2       3 UNK        -0.5102 
     57 CA         32.1696  -51.5916  -52.9336 C.3       3 UNK         0.0241 
     58 CB         32.7334  -52.9870  -52.6216 C.3       3 UNK        -0.1971 
     59 N          33.2134  -50.5794  -52.7348 N.am      3 UNK        -0.4139 
     60 C          33.0318  -49.2583  -52.8659 C.2       2 UNK         0.5016 
     61 O          31.9676  -48.7416  -53.2193 O.2       2 UNK        -0.5319 
     62 CA         34.2512  -48.3714  -52.5909 C.3       2 UNK         0.0286 
     63 CB         35.2628  -48.4446  -53.7481 C.3       2 UNK        -0.1963 
     64 N          33.7958  -46.9939  -52.4341 N.am      2 UNK        -0.4790 
     65 C          34.2801  -46.0994  -51.5656 C.2       1 UNK         0.5024 
     66 O          35.2384  -46.3291  -50.8259 O.2       1 UNK        -0.4888 
     67 H67        30.2106  -44.4741  -53.6400 H         1 UNK         0.0892 
     68 H68        29.4967  -45.9305  -52.9427 H         1 UNK         0.0892 
     69 H69        29.2077  -44.3582  -52.1955 H         1 UNK         0.0892 
     70 H70        32.3624  -44.1365  -53.1141 H         1 UNK         0.3107 
     71 H71        33.3638  -44.5444  -50.4473 H         1 UNK         0.0773 
     72 H72        34.9070  -43.7601  -52.9656 H         1 UNK         0.0680 
     73 H73        35.4832  -43.6307  -51.3276 H         1 UNK         0.0680 
     74 H74        35.0681  -41.3760  -53.7713 H         1 UNK         0.0650 
     75 H75        33.8593  -40.1784  -53.3956 H         1 UNK         0.0650 
     76 H76        34.5287  -43.2317  -55.2629 H         1 UNK         0.1397 
     77 H77        30.6444  -43.3609  -57.0564 H         1 UNK         0.1363 
     78 H78        31.3966  -40.6815  -53.8014 H         1 UNK         0.1355 
     79 H79        29.2618  -40.6071  -54.9243 H         1 UNK         0.0707 
     80 H80        29.2458  -41.1878  -56.5716 H         1 UNK         0.0707 
     81 H81        25.9653  -42.4974  -55.7656 H         1 UNK         0.1034 
     82 H82        27.0340  -41.6274  -56.8090 H         1 UNK         0.1034 
     83 H83        26.0817  -43.4273  -58.0629 H         1 UNK         0.0482 
     84 H84        28.4520  -45.8415  -57.6900 H         1 UNK         0.3460 
     85 H85        29.5415  -45.1402  -58.8651 H         1 UNK         0.3460 
     86 H86        27.0496  -45.6812  -56.4960 H         1 UNK         0.2989 
     87 H87        25.0875  -46.8336  -55.1419 H         1 UNK         0.0559 
     88 H88        22.8442  -47.0376  -57.2224 H         1 UNK         0.0848 
     89 H89        22.6805  -46.4485  -55.5748 H         1 UNK         0.0848 
     90 H90        23.0818  -48.1338  -55.8616 H         1 UNK         0.0848 
     91 H91        26.1695  -48.3069  -56.3619 H         1 UNK         0.3144 
     92 H92        25.9789  -49.6565  -59.4983 H         1 UNK         0.0727 
     93 H93        28.3470  -47.8286  -58.8350 H         1 UNK         0.0790 
     94 H94        28.3427  -49.1527  -59.9935 H         1 UNK         0.0790 
     95 H95        27.3721  -47.7196  -60.2943 H         1 UNK         0.0790 
     96 H96        28.0217  -49.8046  -57.4622 H         1 UNK         0.3215 
     97 H97        26.1931  -51.9957  -55.2960 H         1 UNK         0.0863 
     98 H98        28.2974  -53.2814  -55.5188 H         1 UNK         0.0808 
     99 H99        28.7423  -52.3690  -56.9596 H         1 UNK         0.0808 
    100 H100       27.3464  -53.4381  -56.9866 H         1 UNK         0.0808 
    101 H101       28.7511  -50.8178  -54.9818 H         1 UNK         0.3118 
    102 H102       27.6469  -47.7207  -53.5013 H         1 UNK         0.0546 
    103 H103       29.1528  -50.1612  -52.4174 H         1 UNK         0.0828 
    104 H104       27.7413  -49.4161  -51.6798 H         1 UNK         0.0828 
    105 H105       29.2514  -48.5222  -51.7793 H         1 UNK         0.0828 
    106 H106       30.2535  -48.6965  -54.1150 H         1 UNK         0.3005 
    107 H107       30.5598  -47.2574  -57.3537 H         1 UNK         0.1257 
    108 H108       30.9820  -45.4696  -55.7106 H         1 UNK         0.0775 
    109 H109       31.6791  -46.5831  -54.5822 H         1 UNK         0.0775 
    110 H110       34.0547  -44.2774  -57.6123 H         1 UNK         0.0840 
    111 H111       32.3990  -44.6369  -58.0282 H         1 UNK         0.0840 
    112 H112       32.2823  -48.8548  -55.7364 H         1 UNK         0.2987 
    113 H113       31.2789  -52.0374  -57.0119 H         1 UNK         0.0785 
    114 H114       32.7971  -51.0581  -58.7387 H         1 UNK         0.0798 
    115 H115       33.6828  -52.0882  -57.6273 H         1 UNK         0.0798 
    116 H116       33.7887  -50.3332  -57.4810 H         1 UNK         0.0798 
    117 H117       33.3407  -51.2391  -55.1941 H         1 UNK         0.3079 
    118 H118       31.3749  -51.3799  -52.2153 H         1 UNK         0.0794 
    119 H119       33.0866  -53.0517  -51.5922 H         1 UNK         0.0786 
    120 H120       33.5641  -53.2460  -53.2793 H         1 UNK         0.0786 
    121 H121       31.9672  -53.7538  -52.7469 H         1 UNK         0.0786 
    122 H122       34.1208  -50.9191  -52.4494 H         1 UNK         0.3032 
    123 H123       34.7198  -48.7167  -51.6662 H         1 UNK         0.1094 
    124 H124       34.8142  -48.1469  -54.6963 H         1 UNK         0.0794 
    125 H125       36.1174  -47.7926  -53.5664 H         1 UNK         0.0794 
    126 H126       35.6515  -49.4558  -53.8727 H         1 UNK         0.0794 
    127 H127       32.9491  -46.7745  -52.9412 H         1 UNK         0.3016 
@<TRIPOS>BOND
     1    1    2 1    
     2    1   67 1    
     3    1   68 1    
     4    1   69 1    
     5    2    3 2    
     6    2    4 am   BACKBONE|DICT|INTERRES
     7    4    5 1    
     8    4   70 1    
     9    5    6 1    
    10    5   65 1    
    11    5   71 1    
    12    6    7 1    
    13    6   72 1    
    14    6   73 1    
    15    7    8 1    
    16    8    9 1    
    17    8   74 1    
    18    8   75 1    
    19    9   10 ar   
    20    9   14 ar   
    21   10   11 ar   
    22   10   76 1    
    23   11   12 ar   
    24   11   48 1    
    25   12   13 ar   
    26   12   77 1    
    27   13   14 ar   
    28   13   15 1    
    29   14   78 1    
    30   15   16 1    
    31   15   79 1    
    32   15   80 1    
    33   16   17 1    
    34   17   18 1    
    35   17   81 1    
    36   17   82 1    
    37   18   19 1    
    38   18   22 1    
    39   18   83 1    
    40   19   20 am   BACKBONE|DICT|INTERRES
    41   19   21 2    
    42   20   84 1    
    43   20   85 1    
    44   22   23 am   BACKBONE|DICT|INTERRES
    45   22   86 1    
    46   23   24 2    
    47   23   25 1    
    48   25   26 1    
    49   25   27 1    
    50   25   87 1    
    51   26   88 1    
    52   26   89 1    
    53   26   90 1    
    54   27   28 am   BACKBONE|DICT|INTERRES
    55   27   91 1    
    56   28   29 2    
    57   28   30 1    
    58   30   31 1    
    59   30   32 1    
    60   30   92 1    
    61   31   93 1    
    62   31   94 1    
    63   31   95 1    
    64   32   33 am   BACKBONE|DICT|INTERRES
    65   32   96 1    
    66   33   34 2    
    67   33   35 1    
    68   35   36 1    
    69   35   37 1    
    70   35   97 1    
    71   36   98 1    
    72   36   99 1    
    73   36  100 1    
    74   37   38 am   BACKBONE|DICT|INTERRES
    75   37  101 1    
    76   38   39 2    
    77   38   40 1    
    78   40   41 1    
    79   40   42 1    
    80   40  102 1    
    81   41  103 1    
    82   41  104 1    
    83   41  105 1    
    84   42   43 am   BACKBONE|DICT|INTERRES
    85   42  106 1    
    86   43   44 2    
    87   43   45 1    
    88   45   46 1    
    89   45   49 1    
    90   45  107 1    
    91   46   47 1    
    92   46  108 1    
    93   46  109 1    
    94   47   48 1    
    95   48  110 1    
    96   48  111 1    
    97   49   50 am   BACKBONE|DICT|INTERRES
    98   49  112 1    
    99   50   51 2    
   100   50   52 1    
   101   52   53 1    
   102   52   54 1    
   103   52  113 1    
   104   53  114 1    
   105   53  115 1    
   106   53  116 1    
   107   54   55 am   BACKBONE|DICT|INTERRES
   108   54  117 1    
   109   55   56 2    
   110   55   57 1    
   111   57   58 1    
   112   57   59 1    
   113   57  118 1    
   114   58  119 1    
   115   58  120 1    
   116   58  121 1    
   117   59   60 am   BACKBONE|DICT|INTERRES
   118   59  122 1    
   119   60   61 2    
   120   60   62 1    
   121   62   63 1    
   122   62   64 1    
   123   62  123 1    
   124   63  124 1    
   125   63  125 1    
   126   63  126 1    
   127   64   65 am   BACKBONE|DICT|INTERRES
   128   64  127 1    
   129   65   66 2    
@<TRIPOS>SUBSTRUCTURE
     1 UNK         1 GROUP             0       ****    0 ROOT    
