@<TRIPOS>MOLECULE
3R134
127   129    1
SMALL
USER_CHARGES


@<TRIPOS>ATOM
      1 CA         35.2252  -43.6083  -50.3214 C.3       0 UNK        -0.1968 
      2 C          34.6740  -44.6411  -51.2923 C.2       0 UNK         0.4852 
      3 O          33.4589  -44.8174  -51.3671 O.2       0 UNK        -0.5359 
      4 N          35.5591  -45.3410  -52.0161 N.am      1 UNK        -0.4300 
      5 CA         35.2998  -46.3367  -53.0745 C.3       1 UNK         0.0863 
      6 C6         34.4969  -45.7892  -54.2866 C.3       11 UNK        -0.0953 
      7 S7         35.1075  -44.1840  -54.9129 S.3       11 UNK        -0.2369 
      8 C8         33.9436  -43.8386  -56.2823 C.3       11 UNK         0.0226 
      9 C9         32.4755  -43.6199  -55.8999 C.ar      11 UNK        -0.0699 
     10 C10        32.0407  -43.5101  -54.5724 C.ar      11 UNK        -0.0804 
     11 C11        30.6817  -43.4054  -54.2720 C.ar      11 UNK        -0.0871 
     12 C12        29.7493  -43.3383  -55.3083 C.ar      11 UNK        -0.1008 
     13 C13        30.1655  -43.3982  -56.6402 C.ar      11 UNK        -0.0735 
     14 C14        31.5267  -43.5477  -56.9267 C.ar      11 UNK        -0.0945 
     15 C15        29.1388  -43.3714  -57.7629 C.3       11 UNK         0.0169 
     16 S16        28.0446  -41.9176  -57.6824 S.3       11 UNK        -0.2669 
     17 C17        26.8667  -42.3139  -59.0193 C.3       11 UNK        -0.0850 
     18 CA         25.5348  -42.9322  -58.5129 C.3       10 UNK         0.0855 
     19 C          24.5472  -43.1100  -59.7048 C.2       10 UNK         0.5543 
     20 N          24.2919  -44.3227  -60.1842 N.am      10 UNK        -0.7343 
     21 O          24.0065  -42.1255  -60.2023 O.2       10 UNK        -0.5027 
     22 N          25.7600  -44.1594  -57.7320 N.am      10 UNK        -0.4495 
     23 C          24.8378  -44.7927  -56.9960 C.2       10 UNK         0.4903 
     24 O          23.7258  -44.3215  -56.7522 O.2       10 UNK        -0.4860 
     25 CA         25.2108  -46.1880  -56.4437 C.3       9 UNK         0.0227 
     26 CB         23.9993  -47.1425  -56.4198 C.3       9 UNK        -0.1964 
     27 N          26.3503  -46.8436  -57.1063 N.am      9 UNK        -0.4231 
     28 C          26.4864  -47.1287  -58.4121 C.2       9 UNK         0.5014 
     29 O          25.6623  -46.8180  -59.2740 O.2       9 UNK        -0.5270 
     30 CA         27.7752  -47.8483  -58.8376 C.3       8 UNK         0.0284 
     31 CB         28.9445  -46.8583  -58.9512 C.3       8 UNK        -0.1977 
     32 N          28.1392  -48.9495  -57.9427 N.am      8 UNK        -0.4342 
     33 C          27.5061  -50.1321  -57.9320 C.2       8 UNK         0.5039 
     34 O          26.5477  -50.4025  -58.6573 O.2       8 UNK        -0.5547 
     35 CA         28.0385  -51.2093  -56.9734 C.3       7 UNK         0.0281 
     36 CB         29.3199  -51.8462  -57.5347 C.3       7 UNK        -0.1963 
     37 N          28.2807  -50.7063  -55.6209 N.am      7 UNK        -0.4444 
     38 C          27.3152  -50.3242  -54.7728 C.2       7 UNK         0.5104 
     39 O          26.1120  -50.3855  -55.0272 O.2       7 UNK        -0.5100 
     40 CA         27.7650  -49.7662  -53.4105 C.3       6 UNK         0.0396 
     41 CB         28.0704  -50.9063  -52.4265 C.3       6 UNK        -0.1801 
     42 N          28.9227  -48.8741  -53.4980 N.am      6 UNK        -0.4747 
     43 C          28.9595  -47.7301  -54.1988 C.2       6 UNK         0.5012 
     44 O          28.0241  -47.2986  -54.8731 O.2       6 UNK        -0.5003 
     45 CA         30.3008  -46.9755  -54.1912 C.3       5 UNK         0.0782 
     46 C46        30.5498  -46.2546  -52.8367 C.3       11 UNK        -0.0868 
     47 S47        29.3165  -44.9616  -52.4418 S.3       11 UNK        -0.2515 
     48 C48        30.2181  -43.4254  -52.8250 C.3       11 UNK         0.0199 
     49 N          31.3881  -47.8946  -54.5585 N.am      5 UNK        -0.4607 
     50 C          31.4983  -48.4817  -55.7629 C.2       4 UNK         0.5031 
     51 O          30.7585  -48.2266  -56.7118 O.2       4 UNK        -0.5119 
     52 CA         32.5506  -49.5914  -55.9376 C.3       4 UNK         0.0263 
     53 CB         33.8601  -49.0626  -56.5412 C.3       4 UNK        -0.1967 
     54 N          32.8222  -50.3231  -54.7001 N.am      4 UNK        -0.4237 
     55 C          31.9662  -51.2045  -54.1619 C.2       3 UNK         0.4908 
     56 O          30.8932  -51.5138  -54.6780 O.2       3 UNK        -0.5102 
     57 CA         32.3376  -51.8038  -52.7949 C.3       3 UNK         0.0241 
     58 CB         33.1949  -53.0665  -52.9732 C.3       3 UNK        -0.1971 
     59 N          33.0311  -50.8578  -51.9172 N.am      3 UNK        -0.4139 
     60 C          32.5289  -49.6828  -51.5134 C.2       2 UNK         0.5016 
     61 O          31.4022  -49.2880  -51.8157 O.2       2 UNK        -0.5319 
     62 CA         33.4393  -48.7760  -50.6672 C.3       2 UNK         0.0286 
     63 CB         34.5879  -49.5305  -49.9603 C.3       2 UNK        -0.1963 
     64 N          33.9760  -47.6457  -51.4363 N.am      2 UNK        -0.4790 
     65 C          34.7033  -47.6728  -52.5638 C.2       1 UNK         0.5024 
     66 O          34.9391  -48.7071  -53.1906 O.2       1 UNK        -0.4888 
     67 H67        36.3136  -43.5616  -50.3481 H         1 UNK         0.0892 
     68 H68        34.8373  -42.6205  -50.5686 H         1 UNK         0.0892 
     69 H69        34.9198  -43.8498  -49.3037 H         1 UNK         0.0892 
     70 H70        36.5410  -45.1571  -51.8628 H         1 UNK         0.3107 
     71 H71        36.2916  -46.5943  -53.4499 H         1 UNK         0.0773 
     72 H72        33.4438  -45.7039  -54.0313 H         1 UNK         0.0680 
     73 H73        34.5428  -46.4902  -55.1173 H         1 UNK         0.0680 
     74 H74        34.0071  -44.6622  -56.9952 H         1 UNK         0.0650 
     75 H75        34.2963  -42.9495  -56.8063 H         1 UNK         0.0650 
     76 H76        32.7473  -43.5494  -53.7562 H         1 UNK         0.1397 
     77 H77        28.6952  -43.2642  -55.0767 H         1 UNK         0.1363 
     78 H78        31.8505  -43.6265  -57.9558 H         1 UNK         0.1355 
     79 H79        29.6274  -43.3970  -58.7383 H         1 UNK         0.0707 
     80 H80        28.5340  -44.2727  -57.6880 H         1 UNK         0.0707 
     81 H81        26.6661  -41.3826  -59.5532 H         1 UNK         0.1034 
     82 H82        27.3445  -42.9725  -59.7473 H         1 UNK         0.1034 
     83 H83        25.0719  -42.2093  -57.8384 H         1 UNK         0.0482 
     84 H84        23.6501  -44.4233  -60.9541 H         1 UNK         0.3460 
     85 H85        24.7431  -45.1443  -59.7932 H         1 UNK         0.3460 
     86 H86        26.6398  -44.6253  -57.8809 H         1 UNK         0.2989 
     87 H87        25.5223  -46.0252  -55.4111 H         1 UNK         0.0559 
     88 H88        23.6013  -47.3124  -57.4208 H         1 UNK         0.0848 
     89 H89        23.1894  -46.7397  -55.8104 H         1 UNK         0.0848 
     90 H90        24.2682  -48.1112  -55.9973 H         1 UNK         0.0848 
     91 H91        27.0937  -47.1235  -56.4675 H         1 UNK         0.3144 
     92 H92        27.6011  -48.2634  -59.8329 H         1 UNK         0.0727 
     93 H93        29.2261  -46.4542  -57.9787 H         1 UNK         0.0790 
     94 H94        28.6907  -46.0203  -59.6019 H         1 UNK         0.0790 
     95 H95        29.8268  -47.3395  -59.3736 H         1 UNK         0.0790 
     96 H96        28.9449  -48.8035  -57.3402 H         1 UNK         0.3215 
     97 H97        27.2799  -51.9922  -56.9038 H         1 UNK         0.0863 
     98 H98        29.6668  -52.6639  -56.9027 H         1 UNK         0.0808 
     99 H99        30.1284  -51.1202  -57.6184 H         1 UNK         0.0808 
    100 H100       29.1470  -52.2575  -58.5301 H         1 UNK         0.0808 
    101 H101       29.2430  -50.7112  -55.2931 H         1 UNK         0.3118 
    102 H102       26.9368  -49.1815  -53.0048 H         1 UNK         0.0546 
    103 H103       27.2071  -51.5628  -52.3107 H         1 UNK         0.0828 
    104 H104       28.3202  -50.5213  -51.4377 H         1 UNK         0.0828 
    105 H105       28.9042  -51.5213  -52.7658 H         1 UNK         0.0828 
    106 H106       29.7504  -49.1393  -52.9708 H         1 UNK         0.3005 
    107 H107       30.2476  -46.2142  -54.9729 H         1 UNK         0.1257 
    108 H108       31.5404  -45.8055  -52.8289 H         1 UNK         0.0775 
    109 H109       30.5471  -46.9608  -52.0079 H         1 UNK         0.0775 
    110 H110       29.5662  -42.5706  -52.6398 H         1 UNK         0.0840 
    111 H111       31.0616  -43.3262  -52.1393 H         1 UNK         0.0840 
    112 H112       31.9684  -48.2250  -53.8007 H         1 UNK         0.2987 
    113 H113       32.1353  -50.2969  -56.6598 H         1 UNK         0.0785 
    114 H114       33.6699  -48.3600  -57.3542 H         1 UNK         0.0798 
    115 H115       34.4525  -49.8792  -56.9541 H         1 UNK         0.0798 
    116 H116       34.4784  -48.5592  -55.8027 H         1 UNK         0.0798 
    117 H117       33.6667  -50.0789  -54.1934 H         1 UNK         0.3079 
    118 H118       31.4069  -52.0885  -52.2998 H         1 UNK         0.0794 
    119 H119       34.1562  -52.8412  -53.4369 H         1 UNK         0.0786 
    120 H120       32.6886  -53.7943  -53.6090 H         1 UNK         0.0786 
    121 H121       33.3881  -53.5536  -52.0172 H         1 UNK         0.0786 
    122 H122       33.9754  -51.0911  -51.6460 H         1 UNK         0.3032 
    123 H123       32.7985  -48.3508  -49.8927 H         1 UNK         0.1094 
    124 H124       35.1144  -48.8726  -49.2686 H         1 UNK         0.0794 
    125 H125       34.2086  -50.3683  -49.3734 H         1 UNK         0.0794 
    126 H126       35.3261  -49.9206  -50.6619 H         1 UNK         0.0794 
    127 H127       33.7535  -46.7205  -51.0782 H         1 UNK         0.3016 
@<TRIPOS>BOND
     1    1    2 1    
     2    1   67 1    
     3    1   68 1    
     4    1   69 1    
     5    2    3 2    
     6    2    4 am   BACKBONE|DICT|INTERRES
     7    4    5 1    
     8    4   70 1    
     9    5    6 1    
    10    5   65 1    
    11    5   71 1    
    12    6    7 1    
    13    6   72 1    
    14    6   73 1    
    15    7    8 1    
    16    8    9 1    
    17    8   74 1    
    18    8   75 1    
    19    9   10 ar   
    20    9   14 ar   
    21   10   11 ar   
    22   10   76 1    
    23   11   12 ar   
    24   11   48 1    
    25   12   13 ar   
    26   12   77 1    
    27   13   14 ar   
    28   13   15 1    
    29   14   78 1    
    30   15   16 1    
    31   15   79 1    
    32   15   80 1    
    33   16   17 1    
    34   17   18 1    
    35   17   81 1    
    36   17   82 1    
    37   18   19 1    
    38   18   22 1    
    39   18   83 1    
    40   19   20 am   BACKBONE|DICT|INTERRES
    41   19   21 2    
    42   20   84 1    
    43   20   85 1    
    44   22   23 am   BACKBONE|DICT|INTERRES
    45   22   86 1    
    46   23   24 2    
    47   23   25 1    
    48   25   26 1    
    49   25   27 1    
    50   25   87 1    
    51   26   88 1    
    52   26   89 1    
    53   26   90 1    
    54   27   28 am   BACKBONE|DICT|INTERRES
    55   27   91 1    
    56   28   29 2    
    57   28   30 1    
    58   30   31 1    
    59   30   32 1    
    60   30   92 1    
    61   31   93 1    
    62   31   94 1    
    63   31   95 1    
    64   32   33 am   BACKBONE|DICT|INTERRES
    65   32   96 1    
    66   33   34 2    
    67   33   35 1    
    68   35   36 1    
    69   35   37 1    
    70   35   97 1    
    71   36   98 1    
    72   36   99 1    
    73   36  100 1    
    74   37   38 am   BACKBONE|DICT|INTERRES
    75   37  101 1    
    76   38   39 2    
    77   38   40 1    
    78   40   41 1    
    79   40   42 1    
    80   40  102 1    
    81   41  103 1    
    82   41  104 1    
    83   41  105 1    
    84   42   43 am   BACKBONE|DICT|INTERRES
    85   42  106 1    
    86   43   44 2    
    87   43   45 1    
    88   45   46 1    
    89   45   49 1    
    90   45  107 1    
    91   46   47 1    
    92   46  108 1    
    93   46  109 1    
    94   47   48 1    
    95   48  110 1    
    96   48  111 1    
    97   49   50 am   BACKBONE|DICT|INTERRES
    98   49  112 1    
    99   50   51 2    
   100   50   52 1    
   101   52   53 1    
   102   52   54 1    
   103   52  113 1    
   104   53  114 1    
   105   53  115 1    
   106   53  116 1    
   107   54   55 am   BACKBONE|DICT|INTERRES
   108   54  117 1    
   109   55   56 2    
   110   55   57 1    
   111   57   58 1    
   112   57   59 1    
   113   57  118 1    
   114   58  119 1    
   115   58  120 1    
   116   58  121 1    
   117   59   60 am   BACKBONE|DICT|INTERRES
   118   59  122 1    
   119   60   61 2    
   120   60   62 1    
   121   62   63 1    
   122   62   64 1    
   123   62  123 1    
   124   63  124 1    
   125   63  125 1    
   126   63  126 1    
   127   64   65 am   BACKBONE|DICT|INTERRES
   128   64  127 1    
   129   65   66 2    
@<TRIPOS>SUBSTRUCTURE
     1 UNK         1 GROUP             0       ****    0 ROOT    
