@<TRIPOS>MOLECULE
3R134
127   129    1
SMALL
USER_CHARGES


@<TRIPOS>ATOM
      1 CA         38.0074  -43.6704  -52.1025 C.3       0 UNK        -0.1968 
      2 C          36.7802  -44.5390  -52.3351 C.2       0 UNK         0.4852 
      3 O          35.7910  -44.3977  -51.6145 O.2       0 UNK        -0.5359 
      4 N          36.8462  -45.4413  -53.3253 N.am      1 UNK        -0.4300 
      5 CA         35.8018  -46.3719  -53.7880 C.3       1 UNK         0.0863 
      6 C6         34.4965  -45.6764  -54.2521 C.3       11 UNK        -0.0953 
      7 S7         34.7602  -44.5572  -55.6717 S.3       11 UNK        -0.2369 
      8 C8         34.0611  -42.9868  -55.0662 C.3       11 UNK         0.0226 
      9 C9         32.5634  -43.1005  -54.8212 C.ar      11 UNK        -0.0699 
     10 C10        32.0866  -43.3357  -53.5304 C.ar      11 UNK        -0.0804 
     11 C11        30.7250  -43.5383  -53.3013 C.ar      11 UNK        -0.0871 
     12 C12        29.8229  -43.4335  -54.3626 C.ar      11 UNK        -0.1008 
     13 C13        30.2850  -43.1725  -55.6563 C.ar      11 UNK        -0.0735 
     14 C14        31.6566  -43.0104  -55.8821 C.ar      11 UNK        -0.0945 
     15 C15        29.2998  -43.0905  -56.8094 C.3       11 UNK         0.0169 
     16 S16        28.8081  -44.7495  -57.3694 S.3       11 UNK        -0.2669 
     17 C17        27.6144  -44.3083  -58.6751 C.3       11 UNK        -0.0850 
     18 CA         26.1535  -44.2644  -58.1580 C.3       10 UNK         0.0855 
     19 C          25.2175  -43.6473  -59.2314 C.2       10 UNK         0.5543 
     20 N          24.7153  -42.4413  -59.0037 N.am      10 UNK        -0.7343 
     21 O          24.9872  -44.2304  -60.2883 O.2       10 UNK        -0.5027 
     22 N          25.6804  -45.5892  -57.7315 N.am      10 UNK        -0.4495 
     23 C          24.5699  -45.7976  -57.0075 C.2       10 UNK         0.4903 
     24 O          23.8932  -44.8835  -56.5322 O.2       10 UNK        -0.4860 
     25 CA         24.1372  -47.2626  -56.7654 C.3       9 UNK         0.0227 
     26 CB         22.6470  -47.3951  -56.3867 C.3       9 UNK        -0.1964 
     27 N          24.4701  -48.1616  -57.8752 N.am      9 UNK        -0.4231 
     28 C          24.1124  -48.0457  -59.1649 C.2       9 UNK         0.5014 
     29 O          23.2679  -47.2467  -59.5723 O.2       9 UNK        -0.5270 
     30 CA         24.8365  -48.9671  -60.1749 C.3       8 UNK         0.0284 
     31 CB         25.0693  -48.2686  -61.5317 C.3       8 UNK        -0.1977 
     32 N          26.0965  -49.5359  -59.6669 N.am      8 UNK        -0.4342 
     33 C          27.1681  -48.8645  -59.2162 C.2       8 UNK         0.5039 
     34 O          27.2715  -47.6376  -59.2324 O.2       8 UNK        -0.5547 
     35 CA         28.2592  -49.7073  -58.5344 C.3       7 UNK         0.0281 
     36 CB         29.6629  -49.2688  -58.9846 C.3       7 UNK        -0.1963 
     37 N          28.1661  -49.6293  -57.0698 N.am      7 UNK        -0.4444 
     38 C          27.1081  -50.0197  -56.3382 C.2       7 UNK         0.5104 
     39 O          26.0735  -50.4695  -56.8319 O.2       7 UNK        -0.5100 
     40 CA         27.1870  -49.9160  -54.8035 C.3       6 UNK         0.0396 
     41 CB         27.3286  -51.3149  -54.1824 C.3       6 UNK        -0.1801 
     42 N          28.2758  -49.0758  -54.3124 N.am      6 UNK        -0.4747 
     43 C          28.3126  -47.7361  -54.3747 C.2       6 UNK         0.5012 
     44 O          27.3919  -47.0513  -54.8197 O.2       6 UNK        -0.5003 
     45 CA         29.5906  -47.0520  -53.8323 C.3       5 UNK         0.0782 
     46 C46        29.3013  -46.5584  -52.3894 C.3       11 UNK        -0.0868 
     47 S47        30.6747  -45.6735  -51.5830 S.3       11 UNK        -0.2515 
     48 C48        30.2568  -43.9313  -51.9126 C.3       11 UNK         0.0199 
     49 N          30.7786  -47.9222  -53.9166 N.am      5 UNK        -0.4607 
     50 C          31.2431  -48.4689  -55.0533 C.2       4 UNK         0.5031 
     51 O          30.7894  -48.1887  -56.1611 O.2       4 UNK        -0.5119 
     52 CA         32.3173  -49.5714  -54.9683 C.3       4 UNK         0.0263 
     53 CB         33.5366  -49.2616  -55.8538 C.3       4 UNK        -0.1967 
     54 N          32.7504  -49.9197  -53.6109 N.am      4 UNK        -0.4237 
     55 C          32.0054  -50.6081  -52.7308 C.2       3 UNK         0.4908 
     56 O          30.8448  -50.9553  -52.9568 O.2       3 UNK        -0.5102 
     57 CA         32.6420  -50.9757  -51.3767 C.3       3 UNK         0.0241 
     58 CB         33.0836  -52.4482  -51.3771 C.3       3 UNK        -0.1971 
     59 N          33.7847  -50.1339  -51.0126 N.am      3 UNK        -0.4139 
     60 C          33.6958  -48.8503  -50.6400 C.2       2 UNK         0.5016 
     61 O          32.6277  -48.2530  -50.5174 O.2       2 UNK        -0.5319 
     62 CA         35.0132  -48.0911  -50.3884 C.3       2 UNK         0.0286 
     63 CB         36.2149  -49.0078  -50.0638 C.3       2 UNK        -0.1963 
     64 N          35.3380  -47.1909  -51.5014 N.am      2 UNK        -0.4790 
     65 C          35.4930  -47.5125  -52.7934 C.2       1 UNK         0.5024 
     66 O          35.4042  -48.6653  -53.2194 O.2       1 UNK        -0.4888 
     67 H67        38.3877  -43.8214  -51.0926 H         1 UNK         0.0892 
     68 H68        38.8091  -43.8978  -52.8048 H         1 UNK         0.0892 
     69 H69        37.7471  -42.6183  -52.2151 H         1 UNK         0.0892 
     70 H70        37.7102  -45.5072  -53.8455 H         1 UNK         0.3107 
     71 H71        36.2307  -46.8615  -54.6642 H         1 UNK         0.0773 
     72 H72        33.7406  -46.4024  -54.5515 H         1 UNK         0.0680 
     73 H73        34.0558  -45.1360  -53.4179 H         1 UNK         0.0680 
     74 H74        34.2543  -42.2052  -55.8023 H         1 UNK         0.0650 
     75 H75        34.5820  -42.6878  -54.1551 H         1 UNK         0.0650 
     76 H76        32.7812  -43.4163  -52.7050 H         1 UNK         0.1397 
     77 H77        28.7663  -43.5920  -54.1931 H         1 UNK         0.1363 
     78 H78        32.0218  -42.8353  -56.8849 H         1 UNK         0.1355 
     79 H79        29.7362  -42.5388  -57.6437 H         1 UNK         0.0707 
     80 H80        28.4146  -42.5344  -56.4969 H         1 UNK         0.0707 
     81 H81        27.9029  -43.3459  -59.1024 H         1 UNK         0.1034 
     82 H82        27.7085  -45.0305  -59.4881 H         1 UNK         0.1034 
     83 H83        26.1367  -43.6160  -57.2792 H         1 UNK         0.0482 
     84 H84        24.8993  -41.9554  -58.1397 H         1 UNK         0.3460 
     85 H85        24.1204  -42.0185  -59.6991 H         1 UNK         0.3460 
     86 H86        26.1846  -46.3804  -58.1220 H         1 UNK         0.2989 
     87 H87        24.7250  -47.6095  -55.9144 H         1 UNK         0.0559 
     88 H88        22.4228  -46.8385  -55.4760 H         1 UNK         0.0848 
     89 H89        21.9952  -47.0099  -57.1715 H         1 UNK         0.0848 
     90 H90        22.3745  -48.4344  -56.2037 H         1 UNK         0.0848 
     91 H91        25.1295  -48.8999  -57.6481 H         1 UNK         0.3144 
     92 H92        24.1672  -49.8115  -60.3455 H         1 UNK         0.0727 
     93 H93        25.5802  -48.9254  -62.2355 H         1 UNK         0.0790 
     94 H94        25.6673  -47.3631  -61.4207 H         1 UNK         0.0790 
     95 H95        24.1238  -47.9769  -61.9907 H         1 UNK         0.0790 
     96 H96        26.0906  -50.5399  -59.5413 H         1 UNK         0.3215 
     97 H97        28.1286  -50.7527  -58.8217 H         1 UNK         0.0863 
     98 H98        29.7679  -49.3487  -60.0672 H         1 UNK         0.0808 
     99 H99        29.8666  -48.2314  -58.7145 H         1 UNK         0.0808 
    100 H100       30.4384  -49.8891  -58.5349 H         1 UNK         0.0808 
    101 H101       28.9543  -49.2021  -56.5961 H         1 UNK         0.3118 
    102 H102       26.2439  -49.4859  -54.4598 H         1 UNK         0.0546 
    103 H103       26.5154  -51.9697  -54.4992 H         1 UNK         0.0828 
    104 H104       27.3004  -51.2710  -53.0936 H         1 UNK         0.0828 
    105 H105       28.2651  -51.7927  -54.4735 H         1 UNK         0.0828 
    106 H106       29.0732  -49.5570  -53.9148 H         1 UNK         0.3005 
    107 H107       29.7810  -46.1892  -54.4733 H         1 UNK         0.1257 
    108 H108       29.0532  -47.4068  -51.7482 H         1 UNK         0.0775 
    109 H109       28.4206  -45.9131  -52.3766 H         1 UNK         0.0775 
    110 H110       29.1862  -43.7619  -51.7888 H         1 UNK         0.0840 
    111 H111       30.7527  -43.3025  -51.1716 H         1 UNK         0.0840 
    112 H112       31.2052  -48.1802  -53.0378 H         1 UNK         0.2987 
    113 H113       31.8485  -50.4636  -55.3893 H         1 UNK         0.0785 
    114 H114       33.2354  -49.0853  -56.8874 H         1 UNK         0.0798 
    115 H115       34.2397  -50.0946  -55.8629 H         1 UNK         0.0798 
    116 H116       34.0752  -48.3778  -55.5217 H         1 UNK         0.0798 
    117 H117       33.6918  -49.6393  -53.3504 H         1 UNK         0.3079 
    118 H118       31.8712  -50.8513  -50.6129 H         1 UNK         0.0794 
    119 H119       32.2466  -53.1069  -51.6140 H         1 UNK         0.0786 
    120 H120       33.4632  -52.7494  -50.4005 H         1 UNK         0.0786 
    121 H121       33.8648  -52.6359  -52.1150 H         1 UNK         0.0786 
    122 H122       34.7044  -50.5378  -51.1178 H         1 UNK         0.3032 
    123 H123       34.8356  -47.4593  -49.5163 H         1 UNK         0.1094 
    124 H124       37.0823  -48.4176  -49.7678 H         1 UNK         0.0794 
    125 H125       35.9868  -49.6758  -49.2319 H         1 UNK         0.0794 
    126 H126       36.5157  -49.6234  -50.9121 H         1 UNK         0.0794 
    127 H127       35.3973  -46.1991  -51.2768 H         1 UNK         0.3016 
@<TRIPOS>BOND
     1    1    2 1    
     2    1   67 1    
     3    1   68 1    
     4    1   69 1    
     5    2    3 2    
     6    2    4 am   BACKBONE|DICT|INTERRES
     7    4    5 1    
     8    4   70 1    
     9    5    6 1    
    10    5   65 1    
    11    5   71 1    
    12    6    7 1    
    13    6   72 1    
    14    6   73 1    
    15    7    8 1    
    16    8    9 1    
    17    8   74 1    
    18    8   75 1    
    19    9   10 ar   
    20    9   14 ar   
    21   10   11 ar   
    22   10   76 1    
    23   11   12 ar   
    24   11   48 1    
    25   12   13 ar   
    26   12   77 1    
    27   13   14 ar   
    28   13   15 1    
    29   14   78 1    
    30   15   16 1    
    31   15   79 1    
    32   15   80 1    
    33   16   17 1    
    34   17   18 1    
    35   17   81 1    
    36   17   82 1    
    37   18   19 1    
    38   18   22 1    
    39   18   83 1    
    40   19   20 am   BACKBONE|DICT|INTERRES
    41   19   21 2    
    42   20   84 1    
    43   20   85 1    
    44   22   23 am   BACKBONE|DICT|INTERRES
    45   22   86 1    
    46   23   24 2    
    47   23   25 1    
    48   25   26 1    
    49   25   27 1    
    50   25   87 1    
    51   26   88 1    
    52   26   89 1    
    53   26   90 1    
    54   27   28 am   BACKBONE|DICT|INTERRES
    55   27   91 1    
    56   28   29 2    
    57   28   30 1    
    58   30   31 1    
    59   30   32 1    
    60   30   92 1    
    61   31   93 1    
    62   31   94 1    
    63   31   95 1    
    64   32   33 am   BACKBONE|DICT|INTERRES
    65   32   96 1    
    66   33   34 2    
    67   33   35 1    
    68   35   36 1    
    69   35   37 1    
    70   35   97 1    
    71   36   98 1    
    72   36   99 1    
    73   36  100 1    
    74   37   38 am   BACKBONE|DICT|INTERRES
    75   37  101 1    
    76   38   39 2    
    77   38   40 1    
    78   40   41 1    
    79   40   42 1    
    80   40  102 1    
    81   41  103 1    
    82   41  104 1    
    83   41  105 1    
    84   42   43 am   BACKBONE|DICT|INTERRES
    85   42  106 1    
    86   43   44 2    
    87   43   45 1    
    88   45   46 1    
    89   45   49 1    
    90   45  107 1    
    91   46   47 1    
    92   46  108 1    
    93   46  109 1    
    94   47   48 1    
    95   48  110 1    
    96   48  111 1    
    97   49   50 am   BACKBONE|DICT|INTERRES
    98   49  112 1    
    99   50   51 2    
   100   50   52 1    
   101   52   53 1    
   102   52   54 1    
   103   52  113 1    
   104   53  114 1    
   105   53  115 1    
   106   53  116 1    
   107   54   55 am   BACKBONE|DICT|INTERRES
   108   54  117 1    
   109   55   56 2    
   110   55   57 1    
   111   57   58 1    
   112   57   59 1    
   113   57  118 1    
   114   58  119 1    
   115   58  120 1    
   116   58  121 1    
   117   59   60 am   BACKBONE|DICT|INTERRES
   118   59  122 1    
   119   60   61 2    
   120   60   62 1    
   121   62   63 1    
   122   62   64 1    
   123   62  123 1    
   124   63  124 1    
   125   63  125 1    
   126   63  126 1    
   127   64   65 am   BACKBONE|DICT|INTERRES
   128   64  127 1    
   129   65   66 2    
@<TRIPOS>SUBSTRUCTURE
     1 UNK         1 GROUP             0       ****    0 ROOT    
