@<TRIPOS>MOLECULE
3R134
127   129    1
SMALL
USER_CHARGES


@<TRIPOS>ATOM
      1 CA         31.8784  -47.8701  -60.0844 C.3       0 UNK        -0.1968 
      2 C          32.5657  -47.7338  -58.7334 C.2       0 UNK         0.4852 
      3 O          33.7481  -47.3913  -58.6929 O.2       0 UNK        -0.5359 
      4 N          31.8190  -47.9953  -57.6503 N.am      1 UNK        -0.4300 
      5 CA         32.2020  -47.9392  -56.2343 C.3       1 UNK         0.0863 
      6 C6         31.9678  -46.5583  -55.5561 C.3       11 UNK        -0.0953 
      7 S7         32.8878  -45.1521  -56.2668 S.3       11 UNK        -0.2369 
      8 C8         33.1485  -44.1040  -54.7975 C.3       11 UNK         0.0226 
      9 C9         31.8558  -43.7107  -54.0869 C.ar      11 UNK        -0.0699 
     10 C10        31.7835  -43.7817  -52.6926 C.ar      11 UNK        -0.0804 
     11 C11        30.6177  -43.4064  -52.0188 C.ar      11 UNK        -0.0871 
     12 C12        29.5157  -42.9547  -52.7518 C.ar      11 UNK        -0.1008 
     13 C13        29.5698  -42.8809  -54.1482 C.ar      11 UNK        -0.0735 
     14 C14        30.7468  -43.2503  -54.8059 C.ar      11 UNK        -0.0945 
     15 C15        28.3758  -42.3754  -54.9508 C.3       11 UNK         0.0169 
     16 S16        26.8503  -43.2880  -54.5596 S.3       11 UNK        -0.2669 
     17 C17        25.7391  -42.7710  -55.9136 C.3       11 UNK        -0.0850 
     18 CA         25.3440  -43.9527  -56.8507 C.3       10 UNK         0.0855 
     19 C          24.2134  -43.5766  -57.8587 C.2       10 UNK         0.5543 
     20 N          24.1876  -44.1314  -59.0660 N.am      10 UNK        -0.7343 
     21 O          23.3234  -42.7947  -57.5330 O.2       10 UNK        -0.5027 
     22 N          26.5006  -44.6277  -57.4667 N.am      10 UNK        -0.4495 
     23 C          27.3671  -44.0816  -58.3309 C.2       10 UNK         0.4903 
     24 O          27.3615  -42.8961  -58.6622 O.2       10 UNK        -0.4860 
     25 CA         28.4192  -45.0211  -58.9462 C.3       9 UNK         0.0227 
     26 CB         29.7395  -44.8971  -58.1745 C.3       9 UNK        -0.1964 
     27 N          28.0208  -46.4336  -59.0047 N.am      9 UNK        -0.4231 
     28 C          26.9791  -46.9303  -59.6847 C.2       9 UNK         0.5014 
     29 O          26.1757  -46.2313  -60.3043 O.2       9 UNK        -0.5270 
     30 CA         26.7746  -48.4575  -59.6563 C.3       8 UNK         0.0284 
     31 CB         27.6435  -49.1557  -60.7203 C.3       8 UNK        -0.1977 
     32 N          26.9330  -49.0820  -58.3334 N.am      8 UNK        -0.4342 
     33 C          28.0330  -49.2029  -57.5782 C.2       8 UNK         0.5039 
     34 O          29.1387  -48.7502  -57.8859 O.2       8 UNK        -0.5547 
     35 CA         27.8356  -49.8541  -56.2007 C.3       7 UNK         0.0281 
     36 CB         29.0253  -50.7392  -55.7922 C.3       7 UNK        -0.1963 
     37 N          27.6406  -48.8012  -55.2061 N.am      7 UNK        -0.4444 
     38 C          26.5004  -48.1153  -55.0513 C.2       7 UNK         0.5104 
     39 O          25.4651  -48.3879  -55.6612 O.2       7 UNK        -0.5100 
     40 CA         26.5146  -46.8822  -54.1287 C.3       6 UNK         0.0396 
     41 CB         25.2759  -46.8217  -53.2111 C.3       6 UNK        -0.1801 
     42 N          27.7556  -46.6640  -53.3706 N.am      6 UNK        -0.4747 
     43 C          28.2443  -47.4237  -52.3801 C.2       6 UNK         0.5012 
     44 O          27.7115  -48.4624  -51.9821 O.2       6 UNK        -0.5003 
     45 CA         29.5361  -46.9181  -51.7077 C.3       5 UNK         0.0782 
     46 C46        29.1928  -45.9414  -50.5568 C.3       11 UNK        -0.0868 
     47 S47        30.6870  -45.1655  -49.8566 S.3       11 UNK        -0.2515 
     48 C48        30.5595  -43.4639  -50.4975 C.3       11 UNK         0.0199 
     49 N          30.3492  -48.0456  -51.2404 N.am      5 UNK        -0.4607 
     50 C          30.9928  -48.8972  -52.0440 C.2       4 UNK         0.5031 
     51 O          31.0385  -48.7852  -53.2712 O.2       4 UNK        -0.5119 
     52 CA         31.6767  -50.0888  -51.3686 C.3       4 UNK         0.0263 
     53 CB         30.6635  -51.2232  -51.1213 C.3       4 UNK        -0.1967 
     54 N          32.7529  -50.5499  -52.2388 N.am      4 UNK        -0.4237 
     55 C          33.7717  -51.3409  -51.8832 C.2       3 UNK         0.4908 
     56 O          33.9183  -51.8063  -50.7523 O.2       3 UNK        -0.5102 
     57 CA         34.8085  -51.6679  -52.9712 C.3       3 UNK         0.0241 
     58 CB         34.3810  -52.9126  -53.7658 C.3       3 UNK        -0.1971 
     59 N          35.0289  -50.5551  -53.8973 N.am      3 UNK        -0.4139 
     60 C          35.6969  -49.4321  -53.6073 C.2       2 UNK         0.5016 
     61 O          36.2429  -49.2219  -52.5237 O.2       2 UNK        -0.5319 
     62 CA         35.7604  -48.3523  -54.7025 C.3       2 UNK         0.0286 
     63 CB         36.7084  -48.7622  -55.8470 C.3       2 UNK        -0.1963 
     64 N          34.4450  -47.9346  -55.2099 N.am      2 UNK        -0.4790 
     65 C          33.5418  -48.6359  -55.9108 C.2       1 UNK         0.5024 
     66 O          33.7029  -49.8096  -56.2549 O.2       1 UNK        -0.4888 
     67 H67        30.8110  -48.0590  -59.9792 H         1 UNK         0.0892 
     68 H68        32.0013  -46.9547  -60.6624 H         1 UNK         0.0892 
     69 H69        32.3166  -48.6929  -60.6482 H         1 UNK         0.0892 
     70 H70        30.8579  -48.3063  -57.7972 H         1 UNK         0.3107 
     71 H71        31.4747  -48.5983  -55.7681 H         1 UNK         0.0773 
     72 H72        32.1761  -46.6233  -54.4867 H         1 UNK         0.0680 
     73 H73        30.9072  -46.3150  -55.6108 H         1 UNK         0.0680 
     74 H74        33.6677  -43.1957  -55.1051 H         1 UNK         0.0650 
     75 H75        33.8199  -44.6276  -54.1152 H         1 UNK         0.0650 
     76 H76        32.6372  -44.1254  -52.1242 H         1 UNK         0.1397 
     77 H77        28.6120  -42.6555  -52.2382 H         1 UNK         0.1363 
     78 H78        30.8048  -43.1777  -55.8827 H         1 UNK         0.1355 
     79 H79        28.2248  -41.3153  -54.7431 H         1 UNK         0.0707 
     80 H80        28.5741  -42.4602  -56.0202 H         1 UNK         0.0707 
     81 H81        24.8493  -42.3461  -55.4459 H         1 UNK         0.1034 
     82 H82        26.1883  -41.9563  -56.4831 H         1 UNK         0.1034 
     83 H83        24.8832  -44.7121  -56.2181 H         1 UNK         0.0482 
     84 H84        24.9080  -44.7802  -59.3587 H         1 UNK         0.3460 
     85 H85        23.4450  -43.8882  -59.7021 H         1 UNK         0.3460 
     86 H86        26.5799  -45.6158  -57.2839 H         1 UNK         0.2989 
     87 H87        28.5909  -44.6906  -59.9725 H         1 UNK         0.0559 
     88 H88        30.0932  -43.8653  -58.1691 H         1 UNK         0.0848 
     89 H89        30.5266  -45.5011  -58.6233 H         1 UNK         0.0848 
     90 H90        29.6221  -45.2058  -57.1363 H         1 UNK         0.0848 
     91 H91        28.6112  -47.1118  -58.5271 H         1 UNK         0.3144 
     92 H92        25.7325  -48.6286  -59.9316 H         1 UNK         0.0727 
     93 H93        27.4174  -50.2204  -60.7780 H         1 UNK         0.0790 
     94 H94        28.7083  -49.0523  -60.5147 H         1 UNK         0.0790 
     95 H95        27.4626  -48.7325  -61.7094 H         1 UNK         0.0790 
     96 H96        26.0667  -49.4018  -57.9185 H         1 UNK         0.3215 
     97 H97        26.9484  -50.4907  -56.2329 H         1 UNK         0.0863 
     98 H98        28.8366  -51.2385  -54.8416 H         1 UNK         0.0808 
     99 H99        29.9457  -50.1700  -55.6865 H         1 UNK         0.0808 
    100 H100       29.2067  -51.5152  -56.5368 H         1 UNK         0.0808 
    101 H101       28.4530  -48.5094  -54.6820 H         1 UNK         0.3118 
    102 H102       26.4435  -46.0406  -54.8135 H         1 UNK         0.0546 
    103 H103       24.3547  -46.8269  -53.7950 H         1 UNK         0.0828 
    104 H104       25.2709  -45.9097  -52.6143 H         1 UNK         0.0828 
    105 H105       25.2302  -47.6716  -52.5300 H         1 UNK         0.0828 
    106 H106       28.2565  -45.8206  -53.6194 H         1 UNK         0.3005 
    107 H107       30.1184  -46.3797  -52.4599 H         1 UNK         0.1257 
    108 H108       28.6685  -46.4626  -49.7535 H         1 UNK         0.0775 
    109 H109       28.5128  -45.1584  -50.8985 H         1 UNK         0.0775 
    110 H110       29.6411  -43.0089  -50.1228 H         1 UNK         0.0840 
    111 H111       31.3795  -42.8720  -50.0885 H         1 UNK         0.0840 
    112 H112       30.3388  -48.2157  -50.2457 H         1 UNK         0.2987 
    113 H113       32.1042  -49.7575  -50.4198 H         1 UNK         0.0785 
    114 H114       31.1236  -52.0682  -50.6092 H         1 UNK         0.0798 
    115 H115       30.2375  -51.5896  -52.0563 H         1 UNK         0.0798 
    116 H116       29.8356  -50.8817  -50.4984 H         1 UNK         0.0798 
    117 H117       32.7047  -50.1812  -53.1803 H         1 UNK         0.3079 
    118 H118       35.7544  -51.8895  -52.4720 H         1 UNK         0.0794 
    119 H119       34.2243  -53.7644  -53.1024 H         1 UNK         0.0786 
    120 H120       35.1438  -53.2022  -54.4888 H         1 UNK         0.0786 
    121 H121       33.4499  -52.7458  -54.3093 H         1 UNK         0.0786 
    122 H122       34.5903  -50.6083  -54.8136 H         1 UNK         0.3032 
    123 H123       36.1893  -47.4645  -54.2338 H         1 UNK         0.1094 
    124 H124       36.8071  -47.9633  -56.5821 H         1 UNK         0.0794 
    125 H125       37.7074  -48.9770  -55.4653 H         1 UNK         0.0794 
    126 H126       36.3642  -49.6546  -56.3702 H         1 UNK         0.0794 
    127 H127       34.1931  -46.9778  -54.9996 H         1 UNK         0.3016 
@<TRIPOS>BOND
     1    1    2 1    
     2    1   67 1    
     3    1   68 1    
     4    1   69 1    
     5    2    3 2    
     6    2    4 am   BACKBONE|DICT|INTERRES
     7    4    5 1    
     8    4   70 1    
     9    5    6 1    
    10    5   65 1    
    11    5   71 1    
    12    6    7 1    
    13    6   72 1    
    14    6   73 1    
    15    7    8 1    
    16    8    9 1    
    17    8   74 1    
    18    8   75 1    
    19    9   10 ar   
    20    9   14 ar   
    21   10   11 ar   
    22   10   76 1    
    23   11   12 ar   
    24   11   48 1    
    25   12   13 ar   
    26   12   77 1    
    27   13   14 ar   
    28   13   15 1    
    29   14   78 1    
    30   15   16 1    
    31   15   79 1    
    32   15   80 1    
    33   16   17 1    
    34   17   18 1    
    35   17   81 1    
    36   17   82 1    
    37   18   19 1    
    38   18   22 1    
    39   18   83 1    
    40   19   20 am   BACKBONE|DICT|INTERRES
    41   19   21 2    
    42   20   84 1    
    43   20   85 1    
    44   22   23 am   BACKBONE|DICT|INTERRES
    45   22   86 1    
    46   23   24 2    
    47   23   25 1    
    48   25   26 1    
    49   25   27 1    
    50   25   87 1    
    51   26   88 1    
    52   26   89 1    
    53   26   90 1    
    54   27   28 am   BACKBONE|DICT|INTERRES
    55   27   91 1    
    56   28   29 2    
    57   28   30 1    
    58   30   31 1    
    59   30   32 1    
    60   30   92 1    
    61   31   93 1    
    62   31   94 1    
    63   31   95 1    
    64   32   33 am   BACKBONE|DICT|INTERRES
    65   32   96 1    
    66   33   34 2    
    67   33   35 1    
    68   35   36 1    
    69   35   37 1    
    70   35   97 1    
    71   36   98 1    
    72   36   99 1    
    73   36  100 1    
    74   37   38 am   BACKBONE|DICT|INTERRES
    75   37  101 1    
    76   38   39 2    
    77   38   40 1    
    78   40   41 1    
    79   40   42 1    
    80   40  102 1    
    81   41  103 1    
    82   41  104 1    
    83   41  105 1    
    84   42   43 am   BACKBONE|DICT|INTERRES
    85   42  106 1    
    86   43   44 2    
    87   43   45 1    
    88   45   46 1    
    89   45   49 1    
    90   45  107 1    
    91   46   47 1    
    92   46  108 1    
    93   46  109 1    
    94   47   48 1    
    95   48  110 1    
    96   48  111 1    
    97   49   50 am   BACKBONE|DICT|INTERRES
    98   49  112 1    
    99   50   51 2    
   100   50   52 1    
   101   52   53 1    
   102   52   54 1    
   103   52  113 1    
   104   53  114 1    
   105   53  115 1    
   106   53  116 1    
   107   54   55 am   BACKBONE|DICT|INTERRES
   108   54  117 1    
   109   55   56 2    
   110   55   57 1    
   111   57   58 1    
   112   57   59 1    
   113   57  118 1    
   114   58  119 1    
   115   58  120 1    
   116   58  121 1    
   117   59   60 am   BACKBONE|DICT|INTERRES
   118   59  122 1    
   119   60   61 2    
   120   60   62 1    
   121   62   63 1    
   122   62   64 1    
   123   62  123 1    
   124   63  124 1    
   125   63  125 1    
   126   63  126 1    
   127   64   65 am   BACKBONE|DICT|INTERRES
   128   64  127 1    
   129   65   66 2    
@<TRIPOS>SUBSTRUCTURE
     1 UNK         1 GROUP             0       ****    0 ROOT    
