@<TRIPOS>MOLECULE
3R134
127   129    1
SMALL
USER_CHARGES


@<TRIPOS>ATOM
      1 CA         37.8335  -47.1353  -52.2670 C.3       0 UNK        -0.1968 
      2 C          36.4741  -47.0805  -52.9473 C.2       0 UNK         0.4852 
      3 O          35.9942  -48.1064  -53.4319 O.2       0 UNK        -0.5359 
      4 N          35.8432  -45.8959  -52.9721 N.am      1 UNK        -0.4300 
      5 CA         34.5448  -45.6232  -53.6095 C.3       1 UNK         0.0863 
      6 C6         34.1537  -44.1179  -53.5102 C.3       11 UNK        -0.0953 
      7 S7         34.1346  -43.2710  -55.1266 S.3       11 UNK        -0.2369 
      8 C8         32.5733  -43.8448  -55.8717 C.3       11 UNK         0.0226 
      9 C9         31.3386  -43.2344  -55.2215 C.ar      11 UNK        -0.0699 
     10 C10        30.7224  -43.8851  -54.1503 C.ar      11 UNK        -0.0804 
     11 C11        29.5607  -43.3743  -53.5689 C.ar      11 UNK        -0.0871 
     12 C12        29.0111  -42.1934  -54.0747 C.ar      11 UNK        -0.1008 
     13 C13        29.6164  -41.5258  -55.1448 C.ar      11 UNK        -0.0735 
     14 C14        30.7810  -42.0504  -55.7163 C.ar      11 UNK        -0.0945 
     15 C15        29.0189  -40.2217  -55.6502 C.3       11 UNK         0.0169 
     16 S16        27.5155  -40.5012  -56.6378 S.3       11 UNK        -0.2669 
     17 C17        28.1709  -40.5816  -58.3391 C.3       11 UNK        -0.0850 
     18 CA         27.5278  -41.7330  -59.1593 C.3       10 UNK         0.0855 
     19 C          27.7017  -41.5155  -60.6920 C.2       10 UNK         0.5543 
     20 N          28.1739  -42.4924  -61.4581 N.am      10 UNK        -0.7343 
     21 O          27.3840  -40.4444  -61.2032 O.2       10 UNK        -0.5027 
     22 N          28.0124  -43.0488  -58.7080 N.am      10 UNK        -0.4495 
     23 C          27.2414  -44.0844  -58.3612 C.2       10 UNK         0.4903 
     24 O          26.0101  -44.0477  -58.2880 O.2       10 UNK        -0.4860 
     25 CA         27.9849  -45.3936  -58.0663 C.3       9 UNK         0.0227 
     26 CB         28.9020  -45.2716  -56.8371 C.3       9 UNK        -0.1964 
     27 N          27.0214  -46.4734  -57.8658 N.am      9 UNK        -0.4231 
     28 C          27.2529  -47.7619  -58.1290 C.2       9 UNK         0.5014 
     29 O          28.3170  -48.1896  -58.5824 O.2       9 UNK        -0.5270 
     30 CA         26.0971  -48.7370  -57.8793 C.3       8 UNK         0.0284 
     31 CB         25.3272  -48.9871  -59.1930 C.3       8 UNK        -0.1977 
     32 N          26.6622  -49.9748  -57.3444 N.am      8 UNK        -0.4342 
     33 C          25.9910  -51.0474  -56.9081 C.2       8 UNK         0.5039 
     34 O          24.7625  -51.1370  -56.8954 O.2       8 UNK        -0.5547 
     35 CA         26.8341  -52.2134  -56.3724 C.3       7 UNK         0.0281 
     36 CB         27.8478  -52.7168  -57.4166 C.3       7 UNK        -0.1963 
     37 N          27.5380  -51.7899  -55.1643 N.am      7 UNK        -0.4444 
     38 C          27.1529  -52.0720  -53.9122 C.2       7 UNK         0.5104 
     39 O          26.2166  -52.8233  -53.6363 O.2       7 UNK        -0.5100 
     40 CA         27.9329  -51.4056  -52.7591 C.3       6 UNK         0.0396 
     41 CB         29.0035  -52.3655  -52.2164 C.3       6 UNK        -0.1801 
     42 N          28.5725  -50.1358  -53.1134 N.am      6 UNK        -0.4747 
     43 C          27.9400  -49.0381  -53.5556 C.2       6 UNK         0.5012 
     44 O          26.7156  -48.9400  -53.6399 O.2       6 UNK        -0.5003 
     45 CA         28.8307  -47.8684  -54.0251 C.3       5 UNK         0.0782 
     46 C46        29.0744  -46.8633  -52.8680 C.3       11 UNK        -0.0868 
     47 S47        27.8772  -45.4865  -52.8725 S.3       11 UNK        -0.2515 
     48 C48        28.9185  -44.0741  -52.3773 C.3       11 UNK         0.0199 
     49 N          30.0915  -48.2927  -54.6561 N.am      5 UNK        -0.4607 
     50 C          30.2148  -49.1439  -55.6873 C.2       4 UNK         0.5031 
     51 O          29.2751  -49.7513  -56.1962 O.2       4 UNK        -0.5119 
     52 CA         31.6348  -49.4011  -56.2051 C.3       4 UNK         0.0263 
     53 CB         32.1493  -48.2058  -57.0240 C.3       4 UNK        -0.1967 
     54 N          32.5406  -49.6881  -55.0941 N.am      4 UNK        -0.4237 
     55 C          32.6034  -50.8736  -54.4693 C.2       3 UNK         0.4908 
     56 O          32.0086  -51.8825  -54.8494 O.2       3 UNK        -0.5102 
     57 CA         33.4482  -50.9450  -53.1858 C.3       3 UNK         0.0241 
     58 CB         34.8939  -51.3534  -53.5095 C.3       3 UNK        -0.1971 
     59 N          33.4443  -49.6883  -52.4319 N.am      3 UNK        -0.4139 
     60 C          32.3641  -49.1884  -51.8107 C.2       2 UNK         0.5016 
     61 O          31.2688  -49.7503  -51.7846 O.2       2 UNK        -0.5319 
     62 CA         32.5091  -47.8084  -51.1427 C.3       2 UNK         0.0286 
     63 CB         32.9057  -47.9684  -49.6670 C.3       2 UNK        -0.1963 
     64 N          33.4635  -46.9129  -51.8059 N.am      2 UNK        -0.4790 
     65 C          33.4055  -46.5280  -53.0900 C.2       1 UNK         0.5024 
     66 O          32.5190  -46.8904  -53.8641 O.2       1 UNK        -0.4888 
     67 H67        38.5928  -47.4649  -52.9756 H         1 UNK         0.0892 
     68 H68        37.8098  -47.8435  -51.4393 H         1 UNK         0.0892 
     69 H69        38.1343  -46.1640  -51.8748 H         1 UNK         0.0892 
     70 H70        36.2970  -45.0962  -52.5538 H         1 UNK         0.3107 
     71 H71        34.6719  -45.8927  -54.6602 H         1 UNK         0.0773 
     72 H72        33.1959  -43.9547  -53.0154 H         1 UNK         0.0680 
     73 H73        34.8655  -43.5761  -52.8855 H         1 UNK         0.0680 
     74 H74        32.5861  -43.5941  -56.9333 H         1 UNK         0.0650 
     75 H75        32.5250  -44.9330  -55.8246 H         1 UNK         0.0650 
     76 H76        31.1536  -44.7947  -53.7710 H         1 UNK         0.1397 
     77 H77        28.1126  -41.7850  -53.6320 H         1 UNK         0.1363 
     78 H78        31.2524  -41.5404  -56.5451 H         1 UNK         0.1355 
     79 H79        29.7490  -39.6490  -56.2242 H         1 UNK         0.0707 
     80 H80        28.7578  -39.5980  -54.7940 H         1 UNK         0.0707 
     81 H81        27.9681  -39.6107  -58.7953 H         1 UNK         0.1034 
     82 H82        29.2570  -40.6858  -58.3264 H         1 UNK         0.1034 
     83 H83        26.4488  -41.6762  -59.0043 H         1 UNK         0.0482 
     84 H84        28.4121  -43.3874  -61.0633 H         1 UNK         0.3460 
     85 H85        28.2727  -42.3362  -62.4491 H         1 UNK         0.3460 
     86 H86        29.0131  -43.1765  -58.7386 H         1 UNK         0.2989 
     87 H87        28.5952  -45.6190  -58.9436 H         1 UNK         0.0559 
     88 H88        29.4419  -46.1985  -56.6474 H         1 UNK         0.0848 
     89 H89        28.3421  -45.0120  -55.9379 H         1 UNK         0.0848 
     90 H90        29.6523  -44.4976  -56.9884 H         1 UNK         0.0848 
     91 H91        26.0977  -46.1650  -57.5870 H         1 UNK         0.3144 
     92 H92        25.4239  -48.3150  -57.1304 H         1 UNK         0.0727 
     93 H93        24.4470  -49.6101  -59.0363 H         1 UNK         0.0790 
     94 H94        25.9559  -49.4767  -59.9379 H         1 UNK         0.0790 
     95 H95        24.9783  -48.0488  -59.6263 H         1 UNK         0.0790 
     96 H96        27.6781  -49.9558  -57.2534 H         1 UNK         0.3215 
     97 H97        26.1552  -53.0389  -56.1472 H         1 UNK         0.0863 
     98 H98        28.3736  -53.6009  -57.0559 H         1 UNK         0.0808 
     99 H99        28.5985  -51.9655  -57.6636 H         1 UNK         0.0808 
    100 H100       27.3455  -52.9949  -58.3440 H         1 UNK         0.0808 
    101 H101       28.2853  -51.1141  -55.3013 H         1 UNK         0.3118 
    102 H102       27.2195  -51.1999  -51.9588 H         1 UNK         0.0546 
    103 H103       29.7711  -52.5747  -52.9629 H         1 UNK         0.0828 
    104 H104       28.5632  -53.3194  -51.9227 H         1 UNK         0.0828 
    105 H105       29.4973  -51.9528  -51.3364 H         1 UNK         0.0828 
    106 H106       29.5811  -50.0924  -53.0057 H         1 UNK         0.3005 
    107 H107       28.2710  -47.3685  -54.8180 H         1 UNK         0.1257 
    108 H108       30.0740  -46.4446  -52.9388 H         1 UNK         0.0775 
    109 H109       29.0493  -47.3478  -51.8894 H         1 UNK         0.0775 
    110 H110       28.2955  -43.3676  -51.8266 H         1 UNK         0.0840 
    111 H111       29.6856  -44.4012  -51.6737 H         1 UNK         0.0840 
    112 H112       30.9352  -47.8430  -54.3127 H         1 UNK         0.2987 
    113 H113       31.5998  -50.2692  -56.8674 H         1 UNK         0.0785 
    114 H114       32.2021  -47.2923  -56.4328 H         1 UNK         0.0798 
    115 H115       31.4879  -48.0051  -57.8685 H         1 UNK         0.0798 
    116 H116       33.1424  -48.4011  -57.4285 H         1 UNK         0.0798 
    117 H117       33.0279  -48.8993  -54.6892 H         1 UNK         0.3079 
    118 H118       33.0116  -51.7170  -52.5482 H         1 UNK         0.0794 
    119 H119       35.3816  -50.6306  -54.1646 H         1 UNK         0.0786 
    120 H120       34.9210  -52.3199  -54.0148 H         1 UNK         0.0786 
    121 H121       35.4941  -51.4441  -52.6040 H         1 UNK         0.0786 
    122 H122       34.2963  -49.1392  -52.4548 H         1 UNK         0.3032 
    123 H123       31.5295  -47.3293  -51.1795 H         1 UNK         0.1094 
    124 H124       32.2002  -48.6139  -49.1414 H         1 UNK         0.0794 
    125 H125       33.8960  -48.4129  -49.5602 H         1 UNK         0.0794 
    126 H126       32.9093  -47.0087  -49.1497 H         1 UNK         0.0794 
    127 H127       34.2339  -46.5765  -51.2461 H         1 UNK         0.3016 
@<TRIPOS>BOND
     1    1    2 1    
     2    1   67 1    
     3    1   68 1    
     4    1   69 1    
     5    2    3 2    
     6    2    4 am   BACKBONE|DICT|INTERRES
     7    4    5 1    
     8    4   70 1    
     9    5    6 1    
    10    5   65 1    
    11    5   71 1    
    12    6    7 1    
    13    6   72 1    
    14    6   73 1    
    15    7    8 1    
    16    8    9 1    
    17    8   74 1    
    18    8   75 1    
    19    9   10 ar   
    20    9   14 ar   
    21   10   11 ar   
    22   10   76 1    
    23   11   12 ar   
    24   11   48 1    
    25   12   13 ar   
    26   12   77 1    
    27   13   14 ar   
    28   13   15 1    
    29   14   78 1    
    30   15   16 1    
    31   15   79 1    
    32   15   80 1    
    33   16   17 1    
    34   17   18 1    
    35   17   81 1    
    36   17   82 1    
    37   18   19 1    
    38   18   22 1    
    39   18   83 1    
    40   19   20 am   BACKBONE|DICT|INTERRES
    41   19   21 2    
    42   20   84 1    
    43   20   85 1    
    44   22   23 am   BACKBONE|DICT|INTERRES
    45   22   86 1    
    46   23   24 2    
    47   23   25 1    
    48   25   26 1    
    49   25   27 1    
    50   25   87 1    
    51   26   88 1    
    52   26   89 1    
    53   26   90 1    
    54   27   28 am   BACKBONE|DICT|INTERRES
    55   27   91 1    
    56   28   29 2    
    57   28   30 1    
    58   30   31 1    
    59   30   32 1    
    60   30   92 1    
    61   31   93 1    
    62   31   94 1    
    63   31   95 1    
    64   32   33 am   BACKBONE|DICT|INTERRES
    65   32   96 1    
    66   33   34 2    
    67   33   35 1    
    68   35   36 1    
    69   35   37 1    
    70   35   97 1    
    71   36   98 1    
    72   36   99 1    
    73   36  100 1    
    74   37   38 am   BACKBONE|DICT|INTERRES
    75   37  101 1    
    76   38   39 2    
    77   38   40 1    
    78   40   41 1    
    79   40   42 1    
    80   40  102 1    
    81   41  103 1    
    82   41  104 1    
    83   41  105 1    
    84   42   43 am   BACKBONE|DICT|INTERRES
    85   42  106 1    
    86   43   44 2    
    87   43   45 1    
    88   45   46 1    
    89   45   49 1    
    90   45  107 1    
    91   46   47 1    
    92   46  108 1    
    93   46  109 1    
    94   47   48 1    
    95   48  110 1    
    96   48  111 1    
    97   49   50 am   BACKBONE|DICT|INTERRES
    98   49  112 1    
    99   50   51 2    
   100   50   52 1    
   101   52   53 1    
   102   52   54 1    
   103   52  113 1    
   104   53  114 1    
   105   53  115 1    
   106   53  116 1    
   107   54   55 am   BACKBONE|DICT|INTERRES
   108   54  117 1    
   109   55   56 2    
   110   55   57 1    
   111   57   58 1    
   112   57   59 1    
   113   57  118 1    
   114   58  119 1    
   115   58  120 1    
   116   58  121 1    
   117   59   60 am   BACKBONE|DICT|INTERRES
   118   59  122 1    
   119   60   61 2    
   120   60   62 1    
   121   62   63 1    
   122   62   64 1    
   123   62  123 1    
   124   63  124 1    
   125   63  125 1    
   126   63  126 1    
   127   64   65 am   BACKBONE|DICT|INTERRES
   128   64  127 1    
   129   65   66 2    
@<TRIPOS>SUBSTRUCTURE
     1 UNK         1 GROUP             0       ****    0 ROOT    
