@<TRIPOS>MOLECULE
3R134
127   129    1
SMALL
USER_CHARGES


@<TRIPOS>ATOM
      1 CA         32.7103  -46.3094  -50.6026 C.3       0 UNK        -0.1968 
      2 C          34.0467  -45.9047  -51.2083 C.2       0 UNK         0.4852 
      3 O          34.7583  -45.0841  -50.6265 O.2       0 UNK        -0.5359 
      4 N          34.3782  -46.4746  -52.3709 N.am      1 UNK        -0.4300 
      5 CA         35.6208  -46.2571  -53.1154 C.3       1 UNK         0.0863 
      6 C6         35.3535  -45.7350  -54.5592 C.3       11 UNK        -0.0953 
      7 S7         34.2744  -44.2659  -54.6099 S.3       11 UNK        -0.2369 
      8 C8         32.7067  -45.0596  -55.0834 C.3       11 UNK         0.0226 
      9 C9         31.5149  -44.1703  -54.7813 C.ar      11 UNK        -0.0699 
     10 C10        31.0002  -44.1151  -53.4844 C.ar      11 UNK        -0.0804 
     11 C11        29.8686  -43.3452  -53.1980 C.ar      11 UNK        -0.0871 
     12 C12        29.2581  -42.6189  -54.2259 C.ar      11 UNK        -0.1008 
     13 C13        29.7778  -42.6489  -55.5247 C.ar      11 UNK        -0.0735 
     14 C14        30.9103  -43.4238  -55.7946 C.ar      11 UNK        -0.0945 
     15 C15        29.1273  -41.8339  -56.6333 C.3       11 UNK         0.0169 
     16 S16        28.5229  -42.9037  -57.9758 S.3       11 UNK        -0.2669 
     17 C17        26.8902  -42.1669  -58.3402 C.3       11 UNK        -0.0850 
     18 CA         25.9716  -43.1153  -59.1543 C.3       10 UNK         0.0855 
     19 C          26.3996  -43.1935  -60.6514 C.2       10 UNK         0.5543 
     20 N          26.8624  -44.3297  -61.1608 N.am      10 UNK        -0.7343 
     21 O          26.2959  -42.2000  -61.3669 O.2       10 UNK        -0.5027 
     22 N          25.8279  -44.4115  -58.4779 N.am      10 UNK        -0.4495 
     23 C          24.8947  -45.3313  -58.7423 C.2       10 UNK         0.4903 
     24 O          23.9371  -45.1351  -59.4924 O.2       10 UNK        -0.4860 
     25 CA         25.0664  -46.7003  -58.0526 C.3       9 UNK         0.0227 
     26 CB         24.4291  -47.8484  -58.8624 C.3       9 UNK        -0.1964 
     27 N          26.4559  -47.0364  -57.7068 N.am      9 UNK        -0.4231 
     28 C          27.5084  -47.1426  -58.5352 C.2       9 UNK         0.5014 
     29 O          27.4782  -46.8522  -59.7322 O.2       9 UNK        -0.5270 
     30 CA         28.8119  -47.6887  -57.9235 C.3       8 UNK         0.0284 
     31 CB         29.5773  -46.5851  -57.1734 C.3       8 UNK        -0.1977 
     32 N          28.5721  -48.8215  -57.0252 N.am      8 UNK        -0.4342 
     33 C          28.0713  -50.0081  -57.4029 C.2       8 UNK         0.5039 
     34 O          27.8604  -50.3263  -58.5737 O.2       8 UNK        -0.5547 
     35 CA         27.7141  -50.9970  -56.2825 C.3       7 UNK         0.0281 
     36 CB         28.9478  -51.7939  -55.8278 C.3       7 UNK        -0.1963 
     37 N          27.1137  -50.3056  -55.1398 N.am      7 UNK        -0.4444 
     38 C          25.8282  -49.9289  -55.0785 C.2       7 UNK         0.5104 
     39 O          24.9921  -50.2072  -55.9378 O.2       7 UNK        -0.5100 
     40 CA         25.3921  -49.0998  -53.8561 C.3       6 UNK         0.0396 
     41 CB         24.7705  -50.0120  -52.7868 C.3       6 UNK        -0.1801 
     42 N          26.4805  -48.3254  -53.2537 N.am      6 UNK        -0.4747 
     43 C          27.0591  -47.2520  -53.8133 C.2       6 UNK         0.5012 
     44 O          26.7194  -46.7817  -54.8983 O.2       6 UNK        -0.5003 
     45 CA         28.2569  -46.6438  -53.0539 C.3       5 UNK         0.0782 
     46 C46        27.7554  -45.6168  -52.0074 C.3       11 UNK        -0.0868 
     47 S47        29.0987  -44.9014  -51.0010 S.3       11 UNK        -0.2515 
     48 C48        29.3242  -43.2664  -51.7758 C.3       11 UNK         0.0199 
     49 N          29.1234  -47.6754  -52.4626 N.am      5 UNK        -0.4607 
     50 C          29.7461  -48.6404  -53.1504 C.2       4 UNK         0.5031 
     51 O          29.6299  -48.7902  -54.3683 O.2       4 UNK        -0.5119 
     52 CA         30.5561  -49.6537  -52.3242 C.3       4 UNK         0.0263 
     53 CB         29.6127  -50.7044  -51.7144 C.3       4 UNK        -0.1967 
     54 N          31.5777  -50.3451  -53.1155 N.am      4 UNK        -0.4237 
     55 C          32.6544  -49.7605  -53.6531 C.2       3 UNK         0.4908 
     56 O          32.9261  -48.5624  -53.5209 O.2       3 UNK        -0.5102 
     57 CA         33.5834  -50.6683  -54.4733 C.3       3 UNK         0.0241 
     58 CB         32.9912  -50.9457  -55.8658 C.3       3 UNK        -0.1971 
     59 N          34.8621  -49.9844  -54.6276 N.am      3 UNK        -0.4139 
     60 C          36.0797  -50.4889  -54.3936 C.2       2 UNK         0.5016 
     61 O          36.2980  -51.6748  -54.1435 O.2       2 UNK        -0.5319 
     62 CA         37.2574  -49.4907  -54.4309 C.3       2 UNK         0.0286 
     63 CB         38.0202  -49.6055  -55.7607 C.3       2 UNK        -0.1963 
     64 N          36.8195  -48.1006  -54.2453 N.am      2 UNK        -0.4790 
     65 C          36.3890  -47.5961  -53.0784 C.2       1 UNK         0.5024 
     66 O          36.5320  -48.1848  -52.0041 O.2       1 UNK        -0.4888 
     67 H67        32.8681  -46.9671  -49.7485 H         1 UNK         0.0892 
     68 H68        32.1687  -45.4280  -50.2601 H         1 UNK         0.0892 
     69 H69        32.0816  -46.8292  -51.3252 H         1 UNK         0.0892 
     70 H70        33.7719  -47.1963  -52.7618 H         1 UNK         0.3107 
     71 H71        36.2471  -45.5250  -52.6019 H         1 UNK         0.0773 
     72 H72        34.9016  -46.5082  -55.1835 H         1 UNK         0.0680 
     73 H73        36.2947  -45.4619  -55.0396 H         1 UNK         0.0680 
     74 H74        32.5877  -46.0012  -54.5458 H         1 UNK         0.0650 
     75 H75        32.7386  -45.3152  -56.1437 H         1 UNK         0.0650 
     76 H76        31.4796  -44.6798  -52.6978 H         1 UNK         0.1397 
     77 H77        28.3856  -42.0165  -54.0122 H         1 UNK         0.1363 
     78 H78        31.3098  -43.4560  -56.7991 H         1 UNK         0.1355 
     79 H79        28.3108  -41.2311  -56.2335 H         1 UNK         0.0707 
     80 H80        29.8553  -41.1307  -57.0400 H         1 UNK         0.0707 
     81 H81        26.3972  -41.9257  -57.3972 H         1 UNK         0.1034 
     82 H82        27.0297  -41.2134  -58.8537 H         1 UNK         0.1034 
     83 H83        24.9794  -42.6601  -59.1645 H         1 UNK         0.0482 
     84 H84        27.1287  -44.3612  -62.1316 H         1 UNK         0.3460 
     85 H85        26.9752  -45.1557  -60.5809 H         1 UNK         0.3460 
     86 H86        26.5895  -44.6644  -57.8651 H         1 UNK         0.2989 
     87 H87        24.5328  -46.6292  -57.1039 H         1 UNK         0.0559 
     88 H88        24.8802  -47.9421  -59.8509 H         1 UNK         0.0848 
     89 H89        23.3602  -47.6854  -59.0051 H         1 UNK         0.0848 
     90 H90        24.5433  -48.8045  -58.3512 H         1 UNK         0.0848 
     91 H91        26.6206  -47.1908  -56.7138 H         1 UNK         0.3144 
     92 H92        29.4415  -48.0435  -58.7421 H         1 UNK         0.0727 
     93 H93        30.5106  -46.9619  -56.7543 H         1 UNK         0.0790 
     94 H94        28.9923  -46.1639  -56.3555 H         1 UNK         0.0790 
     95 H95        29.8315  -45.7643  -57.8450 H         1 UNK         0.0790 
     96 H96        28.8059  -48.6890  -56.0434 H         1 UNK         0.3215 
     97 H97        26.9885  -51.7079  -56.6846 H         1 UNK         0.0863 
     98 H98        28.6880  -52.5238  -55.0610 H         1 UNK         0.0808 
     99 H99        29.7258  -51.1469  -55.4256 H         1 UNK         0.0808 
    100 H100       29.3835  -52.3430  -56.6636 H         1 UNK         0.0808 
    101 H101       27.7466  -49.9832  -54.4212 H         1 UNK         0.3118 
    102 H102       24.6250  -48.3990  -54.1929 H         1 UNK         0.0546 
    103 H103       25.4931  -50.7296  -52.3960 H         1 UNK         0.0828 
    104 H104       23.9362  -50.5822  -53.1982 H         1 UNK         0.0828 
    105 H105       24.3817  -49.4342  -51.9482 H         1 UNK         0.0828 
    106 H106       26.8260  -48.6429  -52.3593 H         1 UNK         0.3005 
    107 H107       28.8580  -46.1093  -53.7930 H         1 UNK         0.1257 
    108 H108       27.0499  -46.0852  -51.3183 H         1 UNK         0.0775 
    109 H109       27.2061  -44.8106  -52.4981 H         1 UNK         0.0775 
    110 H110       28.3760  -42.7272  -51.7474 H         1 UNK         0.0840 
    111 H111       30.0228  -42.6879  -51.1700 H         1 UNK         0.0840 
    112 H112       29.2566  -47.6134  -51.4634 H         1 UNK         0.2987 
    113 H113       31.0598  -49.1185  -51.5168 H         1 UNK         0.0785 
    114 H114       30.1589  -51.4122  -51.0903 H         1 UNK         0.0798 
    115 H115       29.0878  -51.2729  -52.4836 H         1 UNK         0.0798 
    116 H116       28.8570  -50.2389  -51.0802 H         1 UNK         0.0798 
    117 H117       31.4204  -51.3261  -53.2928 H         1 UNK         0.3079 
    118 H118       33.7196  -51.6081  -53.9338 H         1 UNK         0.0794 
    119 H119       32.0721  -51.5268  -55.7938 H         1 UNK         0.0786 
    120 H120       33.6842  -51.5179  -56.4830 H         1 UNK         0.0786 
    121 H121       32.7549  -50.0221  -56.3965 H         1 UNK         0.0786 
    122 H122       34.7795  -48.9858  -54.7533 H         1 UNK         0.3032 
    123 H123       37.9377  -49.7566  -53.6183 H         1 UNK         0.1094 
    124 H124       38.8890  -48.9472  -55.7783 H         1 UNK         0.0794 
    125 H125       38.3839  -50.6226  -55.9142 H         1 UNK         0.0794 
    126 H126       37.3887  -49.3537  -56.6137 H         1 UNK         0.0794 
    127 H127       36.7132  -47.5464  -55.0832 H         1 UNK         0.3016 
@<TRIPOS>BOND
     1    1    2 1    
     2    1   67 1    
     3    1   68 1    
     4    1   69 1    
     5    2    3 2    
     6    2    4 am   BACKBONE|DICT|INTERRES
     7    4    5 1    
     8    4   70 1    
     9    5    6 1    
    10    5   65 1    
    11    5   71 1    
    12    6    7 1    
    13    6   72 1    
    14    6   73 1    
    15    7    8 1    
    16    8    9 1    
    17    8   74 1    
    18    8   75 1    
    19    9   10 ar   
    20    9   14 ar   
    21   10   11 ar   
    22   10   76 1    
    23   11   12 ar   
    24   11   48 1    
    25   12   13 ar   
    26   12   77 1    
    27   13   14 ar   
    28   13   15 1    
    29   14   78 1    
    30   15   16 1    
    31   15   79 1    
    32   15   80 1    
    33   16   17 1    
    34   17   18 1    
    35   17   81 1    
    36   17   82 1    
    37   18   19 1    
    38   18   22 1    
    39   18   83 1    
    40   19   20 am   BACKBONE|DICT|INTERRES
    41   19   21 2    
    42   20   84 1    
    43   20   85 1    
    44   22   23 am   BACKBONE|DICT|INTERRES
    45   22   86 1    
    46   23   24 2    
    47   23   25 1    
    48   25   26 1    
    49   25   27 1    
    50   25   87 1    
    51   26   88 1    
    52   26   89 1    
    53   26   90 1    
    54   27   28 am   BACKBONE|DICT|INTERRES
    55   27   91 1    
    56   28   29 2    
    57   28   30 1    
    58   30   31 1    
    59   30   32 1    
    60   30   92 1    
    61   31   93 1    
    62   31   94 1    
    63   31   95 1    
    64   32   33 am   BACKBONE|DICT|INTERRES
    65   32   96 1    
    66   33   34 2    
    67   33   35 1    
    68   35   36 1    
    69   35   37 1    
    70   35   97 1    
    71   36   98 1    
    72   36   99 1    
    73   36  100 1    
    74   37   38 am   BACKBONE|DICT|INTERRES
    75   37  101 1    
    76   38   39 2    
    77   38   40 1    
    78   40   41 1    
    79   40   42 1    
    80   40  102 1    
    81   41  103 1    
    82   41  104 1    
    83   41  105 1    
    84   42   43 am   BACKBONE|DICT|INTERRES
    85   42  106 1    
    86   43   44 2    
    87   43   45 1    
    88   45   46 1    
    89   45   49 1    
    90   45  107 1    
    91   46   47 1    
    92   46  108 1    
    93   46  109 1    
    94   47   48 1    
    95   48  110 1    
    96   48  111 1    
    97   49   50 am   BACKBONE|DICT|INTERRES
    98   49  112 1    
    99   50   51 2    
   100   50   52 1    
   101   52   53 1    
   102   52   54 1    
   103   52  113 1    
   104   53  114 1    
   105   53  115 1    
   106   53  116 1    
   107   54   55 am   BACKBONE|DICT|INTERRES
   108   54  117 1    
   109   55   56 2    
   110   55   57 1    
   111   57   58 1    
   112   57   59 1    
   113   57  118 1    
   114   58  119 1    
   115   58  120 1    
   116   58  121 1    
   117   59   60 am   BACKBONE|DICT|INTERRES
   118   59  122 1    
   119   60   61 2    
   120   60   62 1    
   121   62   63 1    
   122   62   64 1    
   123   62  123 1    
   124   63  124 1    
   125   63  125 1    
   126   63  126 1    
   127   64   65 am   BACKBONE|DICT|INTERRES
   128   64  127 1    
   129   65   66 2    
@<TRIPOS>SUBSTRUCTURE
     1 UNK         1 GROUP             0       ****    0 ROOT    
