@<TRIPOS>MOLECULE
3R134
127   129    1
SMALL
USER_CHARGES


@<TRIPOS>ATOM
      1 CA         36.0133  -43.9890  -47.9408 C.3       0 UNK        -0.1968 
      2 C          36.1411  -44.6760  -49.2926 C.2       0 UNK         0.4852 
      3 O          37.0987  -45.4201  -49.5121 O.2       0 UNK        -0.5359 
      4 N          35.1902  -44.4237  -50.2007 N.am      1 UNK        -0.4300 
      5 CA         35.0997  -45.0442  -51.5256 C.3       1 UNK         0.0863 
      6 C6         34.2140  -44.2313  -52.5071 C.3       11 UNK        -0.0953 
      7 S7         32.6782  -43.5327  -51.7973 S.3       11 UNK        -0.2369 
      8 C8         32.5211  -41.9710  -52.7332 C.3       11 UNK         0.0226 
      9 C9         31.8441  -42.1836  -54.0818 C.ar      11 UNK        -0.0699 
     10 C10        32.4988  -42.8912  -55.0952 C.ar      11 UNK        -0.0804 
     11 C11        31.8460  -43.1816  -56.2942 C.ar      11 UNK        -0.0871 
     12 C12        30.5692  -42.6674  -56.5209 C.ar      11 UNK        -0.1008 
     13 C13        29.9096  -41.9380  -55.5308 C.ar      11 UNK        -0.0735 
     14 C14        30.5476  -41.7047  -54.3077 C.ar      11 UNK        -0.0945 
     15 C15        28.4962  -41.4416  -55.7867 C.3       11 UNK         0.0169 
     16 S16        27.2915  -42.8054  -55.6519 S.3       11 UNK        -0.2669 
     17 C17        26.3166  -42.6276  -57.1918 C.3       11 UNK        -0.0850 
     18 CA         26.4563  -43.8136  -58.1903 C.3       10 UNK         0.0855 
     19 C          27.8601  -43.9389  -58.8378 C.2       10 UNK         0.5543 
     20 N          28.2810  -42.9351  -59.5960 N.am      10 UNK        -0.7343 
     21 O          28.5713  -44.9275  -58.6701 O.2       10 UNK        -0.5027 
     22 N          26.0032  -45.0877  -57.6232 N.am      10 UNK        -0.4495 
     23 C          24.7252  -45.4658  -57.5174 C.2       10 UNK         0.4903 
     24 O          23.7721  -44.7513  -57.8352 O.2       10 UNK        -0.4860 
     25 CA         24.4770  -46.8848  -56.9747 C.3       9 UNK         0.0227 
     26 CB         23.0099  -47.3447  -57.1090 C.3       9 UNK        -0.1964 
     27 N          25.3915  -47.8714  -57.5560 N.am      9 UNK        -0.4231 
     28 C          25.5230  -48.2288  -58.8425 C.2       9 UNK         0.5014 
     29 O          24.8287  -47.7873  -59.7592 O.2       9 UNK        -0.5270 
     30 CA         26.6294  -49.2509  -59.1712 C.3       8 UNK         0.0284 
     31 CB         27.8555  -48.5322  -59.7579 C.3       8 UNK        -0.1977 
     32 N          27.0473  -50.0529  -58.0158 N.am      8 UNK        -0.4342 
     33 C          26.2912  -50.9911  -57.4263 C.2       8 UNK         0.5039 
     34 O          25.1977  -51.3595  -57.8566 O.2       8 UNK        -0.5547 
     35 CA         26.8237  -51.5895  -56.1129 C.3       7 UNK         0.0281 
     36 CB         27.8424  -52.7058  -56.3927 C.3       7 UNK        -0.1963 
     37 N          27.4226  -50.5803  -55.2345 N.am      7 UNK        -0.4444 
     38 C          26.7574  -49.5673  -54.6601 C.2       7 UNK         0.5104 
     39 O          25.5422  -49.4026  -54.7559 O.2       7 UNK        -0.5100 
     40 CA         27.5943  -48.5316  -53.8907 C.3       6 UNK         0.0396 
     41 CB         27.8820  -49.0052  -52.4573 C.3       6 UNK        -0.1801 
     42 N          28.8485  -48.2156  -54.5784 N.am      6 UNK        -0.4747 
     43 C          28.9280  -47.5339  -55.7320 C.2       6 UNK         0.5012 
     44 O          27.9501  -47.0541  -56.3054 O.2       6 UNK        -0.5003 
     45 CA         30.3275  -47.3980  -56.3663 C.3       5 UNK         0.0782 
     46 C46        31.0479  -46.1523  -55.8079 C.3       11 UNK        -0.0868 
     47 S47        32.6642  -45.8242  -56.6061 S.3       11 UNK        -0.2515 
     48 C48        32.4664  -44.1417  -57.2997 C.3       11 UNK         0.0199 
     49 N          31.1159  -48.6208  -56.1866 N.am      5 UNK        -0.4607 
     50 C          30.8510  -49.7819  -56.8009 C.2       4 UNK         0.5031 
     51 O          29.9281  -49.9341  -57.6004 O.2       4 UNK        -0.5119 
     52 CA         31.7252  -50.9904  -56.4203 C.3       4 UNK         0.0263 
     53 CB         33.0128  -51.0085  -57.2589 C.3       4 UNK        -0.1967 
     54 N          32.0680  -51.0243  -54.9959 N.am      4 UNK        -0.4237 
     55 C          31.1757  -51.0802  -53.9963 C.2       3 UNK         0.4908 
     56 O          29.9658  -51.2031  -54.1780 O.2       3 UNK        -0.5102 
     57 CA         31.6959  -50.9390  -52.5542 C.3       3 UNK         0.0241 
     58 CB         31.6883  -52.3044  -51.8484 C.3       3 UNK        -0.1971 
     59 N          33.0305  -50.3405  -52.4362 N.am      3 UNK        -0.4139 
     60 C          33.3679  -49.1011  -52.8203 C.2       2 UNK         0.5016 
     61 O          32.5958  -48.3165  -53.3780 O.2       2 UNK        -0.5319 
     62 CA         34.8450  -48.7262  -52.6169 C.3       2 UNK         0.0286 
     63 CB         35.6865  -49.2471  -53.7948 C.3       2 UNK        -0.1963 
     64 N          35.0636  -47.2848  -52.4900 N.am      2 UNK        -0.4790 
     65 C          34.6823  -46.5291  -51.4510 C.2       1 UNK         0.5024 
     66 O          34.0591  -46.9604  -50.4768 O.2       1 UNK        -0.4888 
     67 H67        36.8904  -43.3715  -47.7488 H         1 UNK         0.0892 
     68 H68        35.1316  -43.3503  -47.8897 H         1 UNK         0.0892 
     69 H69        35.9392  -44.7328  -47.1479 H         1 UNK         0.0892 
     70 H70        34.4097  -43.8292  -49.9594 H         1 UNK         0.3107 
     71 H71        36.1112  -45.0390  -51.9391 H         1 UNK         0.0773 
     72 H72        33.9484  -44.8314  -53.3796 H         1 UNK         0.0680 
     73 H73        34.8142  -43.4063  -52.8928 H         1 UNK         0.0680 
     74 H74        33.4987  -41.5087  -52.8745 H         1 UNK         0.0650 
     75 H75        31.9427  -41.2704  -52.1291 H         1 UNK         0.0650 
     76 H76        33.4933  -43.2778  -54.9343 H         1 UNK         0.1397 
     77 H77        30.0619  -42.8845  -57.4485 H         1 UNK         0.1363 
     78 H78        30.0294  -41.1628  -53.5284 H         1 UNK         0.1355 
     79 H79        28.4617  -40.9821  -56.7750 H         1 UNK         0.0707 
     80 H80        28.2270  -40.6583  -55.0766 H         1 UNK         0.0707 
     81 H81        25.2698  -42.5290  -56.9011 H         1 UNK         0.1034 
     82 H82        26.5518  -41.6856  -57.6877 H         1 UNK         0.1034 
     83 H83        25.7942  -43.6023  -59.0326 H         1 UNK         0.0482 
     84 H84        29.1839  -43.0046  -60.0377 H         1 UNK         0.3460 
     85 H85        27.7048  -42.1257  -59.7642 H         1 UNK         0.3460 
     86 H86        26.7461  -45.7261  -57.3495 H         1 UNK         0.2989 
     87 H87        24.7135  -46.8472  -55.9104 H         1 UNK         0.0559 
     88 H88        22.3397  -46.6744  -56.5696 H         1 UNK         0.0848 
     89 H89        22.8705  -48.3436  -56.6952 H         1 UNK         0.0848 
     90 H90        22.6833  -47.3630  -58.1491 H         1 UNK         0.0848 
     91 H91        26.0573  -48.2647  -56.9037 H         1 UNK         0.3144 
     92 H92        26.2348  -49.9300  -59.9299 H         1 UNK         0.0727 
     93 H93        28.2936  -47.8353  -59.0424 H         1 UNK         0.0790 
     94 H94        27.5853  -47.9582  -60.6453 H         1 UNK         0.0790 
     95 H95        28.6294  -49.2411  -60.0530 H         1 UNK         0.0790 
     96 H96        27.9827  -49.8802  -57.6549 H         1 UNK         0.3215 
     97 H97        25.9763  -52.0278  -55.5812 H         1 UNK         0.0863 
     98 H98        28.1870  -53.1693  -55.4681 H         1 UNK         0.0808 
     99 H99        28.7170  -52.3315  -56.9247 H         1 UNK         0.0808 
    100 H100       27.3998  -53.4921  -57.0055 H         1 UNK         0.0808 
    101 H101       28.4136  -50.6849  -55.0239 H         1 UNK         0.3118 
    102 H102       27.0082  -47.6120  -53.8267 H         1 UNK         0.0546 
    103 H103       28.4406  -49.9406  -52.4380 H         1 UNK         0.0828 
    104 H104       26.9519  -49.1748  -51.9133 H         1 UNK         0.0828 
    105 H105       28.4512  -48.2617  -51.8994 H         1 UNK         0.0828 
    106 H106       29.6974  -48.5995  -54.1877 H         1 UNK         0.3005 
    107 H107       30.1763  -47.2464  -57.4379 H         1 UNK         0.1257 
    108 H108       30.3923  -45.2898  -55.9216 H         1 UNK         0.0775 
    109 H109       31.2217  -46.2544  -54.7347 H         1 UNK         0.0775 
    110 H110       33.4407  -43.7640  -57.6124 H         1 UNK         0.0840 
    111 H111       31.8551  -44.2067  -58.2015 H         1 UNK         0.0840 
    112 H112       31.8666  -48.5716  -55.5085 H         1 UNK         0.2987 
    113 H113       31.1560  -51.8945  -56.6454 H         1 UNK         0.0785 
    114 H114       32.7824  -51.0022  -58.3254 H         1 UNK         0.0798 
    115 H115       33.6027  -51.9039  -57.0624 H         1 UNK         0.0798 
    116 H116       33.6408  -50.1397  -57.0564 H         1 UNK         0.0798 
    117 H117       33.0442  -50.9336  -54.7585 H         1 UNK         0.3079 
    118 H118       30.9992  -50.2812  -52.0306 H         1 UNK         0.0794 
    119 H119       31.9516  -52.2093  -50.7947 H         1 UNK         0.0786 
    120 H120       32.3886  -53.0020  -52.3098 H         1 UNK         0.0786 
    121 H121       30.6982  -52.7611  -51.8913 H         1 UNK         0.0786 
    122 H122       33.7391  -50.9218  -52.0112 H         1 UNK         0.3032 
    123 H123       35.1964  -49.1972  -51.6957 H         1 UNK         0.1094 
    124 H124       35.3737  -48.8033  -54.7413 H         1 UNK         0.0794 
    125 H125       36.7451  -49.0266  -53.6550 H         1 UNK         0.0794 
    126 H126       35.5980  -50.3295  -53.8974 H         1 UNK         0.0794 
    127 H127       35.5345  -46.8387  -53.2638 H         1 UNK         0.3016 
@<TRIPOS>BOND
     1    1    2 1    
     2    1   67 1    
     3    1   68 1    
     4    1   69 1    
     5    2    3 2    
     6    2    4 am   BACKBONE|DICT|INTERRES
     7    4    5 1    
     8    4   70 1    
     9    5    6 1    
    10    5   65 1    
    11    5   71 1    
    12    6    7 1    
    13    6   72 1    
    14    6   73 1    
    15    7    8 1    
    16    8    9 1    
    17    8   74 1    
    18    8   75 1    
    19    9   10 ar   
    20    9   14 ar   
    21   10   11 ar   
    22   10   76 1    
    23   11   12 ar   
    24   11   48 1    
    25   12   13 ar   
    26   12   77 1    
    27   13   14 ar   
    28   13   15 1    
    29   14   78 1    
    30   15   16 1    
    31   15   79 1    
    32   15   80 1    
    33   16   17 1    
    34   17   18 1    
    35   17   81 1    
    36   17   82 1    
    37   18   19 1    
    38   18   22 1    
    39   18   83 1    
    40   19   20 am   BACKBONE|DICT|INTERRES
    41   19   21 2    
    42   20   84 1    
    43   20   85 1    
    44   22   23 am   BACKBONE|DICT|INTERRES
    45   22   86 1    
    46   23   24 2    
    47   23   25 1    
    48   25   26 1    
    49   25   27 1    
    50   25   87 1    
    51   26   88 1    
    52   26   89 1    
    53   26   90 1    
    54   27   28 am   BACKBONE|DICT|INTERRES
    55   27   91 1    
    56   28   29 2    
    57   28   30 1    
    58   30   31 1    
    59   30   32 1    
    60   30   92 1    
    61   31   93 1    
    62   31   94 1    
    63   31   95 1    
    64   32   33 am   BACKBONE|DICT|INTERRES
    65   32   96 1    
    66   33   34 2    
    67   33   35 1    
    68   35   36 1    
    69   35   37 1    
    70   35   97 1    
    71   36   98 1    
    72   36   99 1    
    73   36  100 1    
    74   37   38 am   BACKBONE|DICT|INTERRES
    75   37  101 1    
    76   38   39 2    
    77   38   40 1    
    78   40   41 1    
    79   40   42 1    
    80   40  102 1    
    81   41  103 1    
    82   41  104 1    
    83   41  105 1    
    84   42   43 am   BACKBONE|DICT|INTERRES
    85   42  106 1    
    86   43   44 2    
    87   43   45 1    
    88   45   46 1    
    89   45   49 1    
    90   45  107 1    
    91   46   47 1    
    92   46  108 1    
    93   46  109 1    
    94   47   48 1    
    95   48  110 1    
    96   48  111 1    
    97   49   50 am   BACKBONE|DICT|INTERRES
    98   49  112 1    
    99   50   51 2    
   100   50   52 1    
   101   52   53 1    
   102   52   54 1    
   103   52  113 1    
   104   53  114 1    
   105   53  115 1    
   106   53  116 1    
   107   54   55 am   BACKBONE|DICT|INTERRES
   108   54  117 1    
   109   55   56 2    
   110   55   57 1    
   111   57   58 1    
   112   57   59 1    
   113   57  118 1    
   114   58  119 1    
   115   58  120 1    
   116   58  121 1    
   117   59   60 am   BACKBONE|DICT|INTERRES
   118   59  122 1    
   119   60   61 2    
   120   60   62 1    
   121   62   63 1    
   122   62   64 1    
   123   62  123 1    
   124   63  124 1    
   125   63  125 1    
   126   63  126 1    
   127   64   65 am   BACKBONE|DICT|INTERRES
   128   64  127 1    
   129   65   66 2    
@<TRIPOS>SUBSTRUCTURE
     1 UNK         1 GROUP             0       ****    0 ROOT    
