@<TRIPOS>MOLECULE
3R134
127   129    1
SMALL
USER_CHARGES


@<TRIPOS>ATOM
      1 CA         36.2143  -47.4329  -54.3814 C.3       0 UNK        -0.1968 
      2 C          34.9989  -46.8653  -53.6661 C.2       0 UNK         0.4852 
      3 O          33.9555  -47.5173  -53.6262 O.2       0 UNK        -0.5359 
      4 N          35.1253  -45.6643  -53.0855 N.am      1 UNK        -0.4300 
      5 CA         34.0374  -44.9072  -52.4487 C.3       1 UNK         0.0863 
      6 C6         34.4816  -43.4905  -52.0012 C.3       11 UNK        -0.0953 
      7 S7         35.3887  -42.5612  -53.2831 S.3       11 UNK        -0.2369 
      8 C8         34.0440  -41.6664  -54.1223 C.3       11 UNK         0.0226 
      9 C9         33.1589  -42.5952  -54.9422 C.ar      11 UNK        -0.0699 
     10 C10        33.6925  -43.2954  -56.0284 C.ar      11 UNK        -0.0804 
     11 C11        32.8855  -44.1314  -56.8063 C.ar      11 UNK        -0.0871 
     12 C12        31.5285  -44.2591  -56.4898 C.ar      11 UNK        -0.1008 
     13 C13        30.9862  -43.5747  -55.3978 C.ar      11 UNK        -0.0735 
     14 C14        31.8049  -42.7427  -54.6285 C.ar      11 UNK        -0.0945 
     15 C15        29.5160  -43.7341  -55.0475 C.3       11 UNK         0.0169 
     16 S16        28.4617  -42.7243  -56.1342 S.3       11 UNK        -0.2669 
     17 C17        26.8561  -42.7428  -55.2558 C.3       11 UNK        -0.0850 
     18 CA         26.3573  -44.1499  -54.8128 C.3       10 UNK         0.0855 
     19 C          25.0457  -44.0965  -53.9684 C.2       10 UNK         0.5543 
     20 N          24.1946  -45.1166  -54.0022 N.am      10 UNK        -0.7343 
     21 O          24.8086  -43.1324  -53.2446 O.2       10 UNK        -0.5027 
     22 N          26.3313  -45.1289  -55.9112 N.am      10 UNK        -0.4495 
     23 C          25.5152  -45.1205  -56.9747 C.2       10 UNK         0.4903 
     24 O          24.7525  -44.1957  -57.2559 O.2       10 UNK        -0.4860 
     25 CA         25.5182  -46.3853  -57.8564 C.3       9 UNK         0.0227 
     26 CB         26.2638  -46.1251  -59.1733 C.3       9 UNK        -0.1964 
     27 N          26.0869  -47.5670  -57.1919 N.am      9 UNK        -0.4231 
     28 C          25.5479  -48.1674  -56.1188 C.2       9 UNK         0.5014 
     29 O          24.4855  -47.8106  -55.6036 O.2       9 UNK        -0.5270 
     30 CA         26.3701  -49.3007  -55.4811 C.3       8 UNK         0.0284 
     31 CB         25.6552  -49.9903  -54.2990 C.3       8 UNK        -0.1977 
     32 N          26.8601  -50.2793  -56.4543 N.am      8 UNK        -0.4342 
     33 C          26.1240  -51.0961  -57.2221 C.2       8 UNK         0.5039 
     34 O          24.8920  -51.1385  -57.2095 O.2       8 UNK        -0.5547 
     35 CA         26.9202  -52.0232  -58.1610 C.3       7 UNK         0.0281 
     36 CB         26.0195  -52.8951  -59.0635 C.3       7 UNK        -0.1963 
     37 N          27.9090  -51.2881  -58.9594 N.am      7 UNK        -0.4444 
     38 C          27.6698  -50.3053  -59.8411 C.2       7 UNK         0.5104 
     39 O          26.5482  -49.8894  -60.1351 O.2       7 UNK        -0.5100 
     40 CA         28.9219  -49.6828  -60.4884 C.3       6 UNK         0.0396 
     41 CB         28.6041  -48.4710  -61.3893 C.3       6 UNK        -0.1801 
     42 N          29.9678  -49.3329  -59.5171 N.am      6 UNK        -0.4747 
     43 C          29.8481  -48.5220  -58.4531 C.2       6 UNK         0.5012 
     44 O          28.7868  -48.0068  -58.0900 O.2       6 UNK        -0.5003 
     45 CA         31.1648  -48.1950  -57.7147 C.3       5 UNK         0.0782 
     46 C46        31.9865  -47.1869  -58.5590 C.3       11 UNK        -0.0868 
     47 S47        33.5502  -46.6634  -57.7723 S.3       11 UNK        -0.2515 
     48 C48        33.4842  -44.8562  -58.0057 C.3       11 UNK         0.0199 
     49 N          30.9668  -47.7162  -56.3424 N.am      5 UNK        -0.4607 
     50 C          30.3538  -48.3753  -55.3530 C.2       4 UNK         0.5031 
     51 O          29.8039  -49.4702  -55.4900 O.2       4 UNK        -0.5119 
     52 CA         30.4100  -47.6931  -53.9765 C.3       4 UNK         0.0263 
     53 CB         29.0220  -47.4885  -53.3368 C.3       4 UNK        -0.1967 
     54 N          31.3422  -48.3966  -53.0938 N.am      4 UNK        -0.4237 
     55 C          31.2072  -49.5864  -52.4859 C.2       3 UNK         0.4908 
     56 O          30.1839  -50.2707  -52.4848 O.2       3 UNK        -0.5102 
     57 CA         32.4407  -50.1011  -51.7268 C.3       3 UNK         0.0241 
     58 CB         33.3778  -50.8691  -52.6743 C.3       3 UNK        -0.1971 
     59 N          33.1776  -49.0073  -51.0907 N.am      3 UNK        -0.4139 
     60 C          32.8872  -48.5009  -49.8840 C.2       2 UNK         0.5016 
     61 O          32.0184  -48.9563  -49.1393 O.2       2 UNK        -0.5319 
     62 CA         33.7031  -47.2797  -49.4222 C.3       2 UNK         0.0286 
     63 CB         34.9125  -47.7261  -48.5847 C.3       2 UNK        -0.1963 
     64 N          34.1679  -46.4432  -50.5322 N.am      2 UNK        -0.4790 
     65 C          33.3764  -45.6470  -51.2669 C.2       1 UNK         0.5024 
     66 O          32.1734  -45.4960  -51.0541 O.2       1 UNK        -0.4888 
     67 H67        36.4903  -48.3935  -53.9477 H         1 UNK         0.0892 
     68 H68        35.9844  -47.5873  -55.4354 H         1 UNK         0.0892 
     69 H69        37.0750  -46.7678  -54.3148 H         1 UNK         0.0892 
     70 H70        36.0038  -45.1698  -53.1544 H         1 UNK         0.3107 
     71 H71        33.2618  -44.7950  -53.2081 H         1 UNK         0.0773 
     72 H72        35.1388  -43.5565  -51.1317 H         1 UNK         0.0680 
     73 H73        33.6185  -42.9032  -51.6816 H         1 UNK         0.0680 
     74 H74        33.4613  -41.1128  -53.3845 H         1 UNK         0.0650 
     75 H75        34.4824  -40.9213  -54.7875 H         1 UNK         0.0650 
     76 H76        34.7407  -43.1799  -56.2685 H         1 UNK         0.1397 
     77 H77        30.8845  -44.8794  -57.0959 H         1 UNK         0.1363 
     78 H78        31.3856  -42.2049  -53.7891 H         1 UNK         0.1355 
     79 H79        29.2348  -44.7833  -55.1419 H         1 UNK         0.0707 
     80 H80        29.3431  -43.4543  -54.0069 H         1 UNK         0.0707 
     81 H81        26.1138  -42.2676  -55.8990 H         1 UNK         0.1034 
     82 H82        26.9553  -42.0887  -54.3876 H         1 UNK         0.1034 
     83 H83        27.0854  -44.5421  -54.1039 H         1 UNK         0.0482 
     84 H84        24.3683  -45.9256  -54.5862 H         1 UNK         0.3460 
     85 H85        23.3572  -45.0745  -53.4435 H         1 UNK         0.3460 
     86 H86        26.9182  -45.9389  -55.7901 H         1 UNK         0.2989 
     87 H87        24.4778  -46.6122  -58.0974 H         1 UNK         0.0559 
     88 H88        25.8424  -45.2676  -59.6997 H         1 UNK         0.0848 
     89 H89        26.1859  -46.9831  -59.8406 H         1 UNK         0.0848 
     90 H90        27.3212  -45.9173  -59.0057 H         1 UNK         0.0848 
     91 H91        26.9875  -47.8911  -57.5421 H         1 UNK         0.3144 
     92 H92        27.2586  -48.8199  -55.0794 H         1 UNK         0.0727 
     93 H93        26.2885  -50.7519  -53.8440 H         1 UNK         0.0790 
     94 H94        24.7239  -50.4658  -54.6076 H         1 UNK         0.0790 
     95 H95        25.4077  -49.2690  -53.5192 H         1 UNK         0.0790 
     96 H96        27.8683  -50.3036  -56.5542 H         1 UNK         0.3215 
     97 H97        27.4831  -52.6988  -57.5147 H         1 UNK         0.0863 
     98 H98        26.6116  -53.5590  -59.6932 H         1 UNK         0.0808 
     99 H99        25.3872  -52.2904  -59.7143 H         1 UNK         0.0808 
    100 H100       25.3589  -53.5223  -58.4636 H         1 UNK         0.0808 
    101 H101       28.8758  -51.5310  -58.7917 H         1 UNK         0.3118 
    102 H102       29.3424  -50.4594  -61.1291 H         1 UNK         0.0546 
    103 H103       28.2177  -47.6299  -60.8158 H         1 UNK         0.0828 
    104 H104       27.8582  -48.7239  -62.1439 H         1 UNK         0.0828 
    105 H105       29.4934  -48.1297  -61.9188 H         1 UNK         0.0828 
    106 H106       30.8820  -49.7133  -59.7230 H         1 UNK         0.3005 
    107 H107       31.7332  -49.1241  -57.6338 H         1 UNK         0.1257 
    108 H108       32.2478  -47.6244  -59.5245 H         1 UNK         0.0775 
    109 H109       31.3806  -46.3099  -58.7920 H         1 UNK         0.0775 
    110 H110       34.5023  -44.5072  -58.1856 H         1 UNK         0.0840 
    111 H111       32.9262  -44.6034  -58.9082 H         1 UNK         0.0840 
    112 H112       31.4290  -46.8446  -56.1293 H         1 UNK         0.2987 
    113 H113       30.8410  -46.6990  -54.1101 H         1 UNK         0.0785 
    114 H114       29.1035  -46.9610  -52.3864 H         1 UNK         0.0798 
    115 H115       28.5095  -48.4317  -53.1497 H         1 UNK         0.0798 
    116 H116       28.3798  -46.8923  -53.9844 H         1 UNK         0.0798 
    117 H117       32.2809  -47.9999  -53.0952 H         1 UNK         0.3079 
    118 H118       32.0960  -50.7969  -50.9585 H         1 UNK         0.0794 
    119 H119       32.8563  -51.7053  -53.1421 H         1 UNK         0.0786 
    120 H120       34.2332  -51.2802  -52.1379 H         1 UNK         0.0786 
    121 H121       33.7577  -50.2342  -53.4756 H         1 UNK         0.0786 
    122 H122       33.8689  -48.5359  -51.6594 H         1 UNK         0.3032 
    123 H123       33.0511  -46.6753  -48.7869 H         1 UNK         0.1094 
    124 H124       35.6109  -48.3267  -49.1689 H         1 UNK         0.0794 
    125 H125       35.4565  -46.8701  -48.1850 H         1 UNK         0.0794 
    126 H126       34.5951  -48.3313  -47.7341 H         1 UNK         0.0794 
    127 H127       35.1472  -46.4994  -50.7736 H         1 UNK         0.3016 
@<TRIPOS>BOND
     1    1    2 1    
     2    1   67 1    
     3    1   68 1    
     4    1   69 1    
     5    2    3 2    
     6    2    4 am   BACKBONE|DICT|INTERRES
     7    4    5 1    
     8    4   70 1    
     9    5    6 1    
    10    5   65 1    
    11    5   71 1    
    12    6    7 1    
    13    6   72 1    
    14    6   73 1    
    15    7    8 1    
    16    8    9 1    
    17    8   74 1    
    18    8   75 1    
    19    9   10 ar   
    20    9   14 ar   
    21   10   11 ar   
    22   10   76 1    
    23   11   12 ar   
    24   11   48 1    
    25   12   13 ar   
    26   12   77 1    
    27   13   14 ar   
    28   13   15 1    
    29   14   78 1    
    30   15   16 1    
    31   15   79 1    
    32   15   80 1    
    33   16   17 1    
    34   17   18 1    
    35   17   81 1    
    36   17   82 1    
    37   18   19 1    
    38   18   22 1    
    39   18   83 1    
    40   19   20 am   BACKBONE|DICT|INTERRES
    41   19   21 2    
    42   20   84 1    
    43   20   85 1    
    44   22   23 am   BACKBONE|DICT|INTERRES
    45   22   86 1    
    46   23   24 2    
    47   23   25 1    
    48   25   26 1    
    49   25   27 1    
    50   25   87 1    
    51   26   88 1    
    52   26   89 1    
    53   26   90 1    
    54   27   28 am   BACKBONE|DICT|INTERRES
    55   27   91 1    
    56   28   29 2    
    57   28   30 1    
    58   30   31 1    
    59   30   32 1    
    60   30   92 1    
    61   31   93 1    
    62   31   94 1    
    63   31   95 1    
    64   32   33 am   BACKBONE|DICT|INTERRES
    65   32   96 1    
    66   33   34 2    
    67   33   35 1    
    68   35   36 1    
    69   35   37 1    
    70   35   97 1    
    71   36   98 1    
    72   36   99 1    
    73   36  100 1    
    74   37   38 am   BACKBONE|DICT|INTERRES
    75   37  101 1    
    76   38   39 2    
    77   38   40 1    
    78   40   41 1    
    79   40   42 1    
    80   40  102 1    
    81   41  103 1    
    82   41  104 1    
    83   41  105 1    
    84   42   43 am   BACKBONE|DICT|INTERRES
    85   42  106 1    
    86   43   44 2    
    87   43   45 1    
    88   45   46 1    
    89   45   49 1    
    90   45  107 1    
    91   46   47 1    
    92   46  108 1    
    93   46  109 1    
    94   47   48 1    
    95   48  110 1    
    96   48  111 1    
    97   49   50 am   BACKBONE|DICT|INTERRES
    98   49  112 1    
    99   50   51 2    
   100   50   52 1    
   101   52   53 1    
   102   52   54 1    
   103   52  113 1    
   104   53  114 1    
   105   53  115 1    
   106   53  116 1    
   107   54   55 am   BACKBONE|DICT|INTERRES
   108   54  117 1    
   109   55   56 2    
   110   55   57 1    
   111   57   58 1    
   112   57   59 1    
   113   57  118 1    
   114   58  119 1    
   115   58  120 1    
   116   58  121 1    
   117   59   60 am   BACKBONE|DICT|INTERRES
   118   59  122 1    
   119   60   61 2    
   120   60   62 1    
   121   62   63 1    
   122   62   64 1    
   123   62  123 1    
   124   63  124 1    
   125   63  125 1    
   126   63  126 1    
   127   64   65 am   BACKBONE|DICT|INTERRES
   128   64  127 1    
   129   65   66 2    
@<TRIPOS>SUBSTRUCTURE
     1 UNK         1 GROUP             0       ****    0 ROOT    
