@<TRIPOS>MOLECULE
3R134
127   129    1
SMALL
USER_CHARGES


@<TRIPOS>ATOM
      1 CA         37.2184  -43.4930  -53.6081 C.3       0 UNK        -0.1968 
      2 C          36.0082  -44.4072  -53.7253 C.2       0 UNK         0.4852 
      3 O          35.2219  -44.4970  -52.7814 O.2       0 UNK        -0.5359 
      4 N          35.8651  -45.0914  -54.8702 N.am      1 UNK        -0.4300 
      5 CA         34.7778  -46.0063  -55.2610 C.3       1 UNK         0.0863 
      6 C6         33.3708  -45.3583  -55.2461 C.3       11 UNK        -0.0953 
      7 S7         33.2319  -43.8993  -56.3424 S.3       11 UNK        -0.2369 
      8 C8         32.8083  -42.5456  -55.1936 C.3       11 UNK         0.0226 
      9 C9         31.5296  -42.8358  -54.4211 C.ar      11 UNK        -0.0699 
     10 C10        31.6116  -43.3427  -53.1252 C.ar      11 UNK        -0.0804 
     11 C11        30.4634  -43.7464  -52.4459 C.ar      11 UNK        -0.0871 
     12 C12        29.2101  -43.5533  -53.0319 C.ar      11 UNK        -0.1008 
     13 C13        29.1068  -43.0149  -54.3221 C.ar      11 UNK        -0.0735 
     14 C14        30.2739  -42.6548  -55.0080 C.ar      11 UNK        -0.0945 
     15 C15        27.7522  -42.8275  -55.0001 C.3       11 UNK         0.0169 
     16 S16        26.6044  -44.2177  -54.7159 S.3       11 UNK        -0.2669 
     17 C17        25.4730  -44.0636  -56.1418 C.3       11 UNK        -0.0850 
     18 CA         25.4896  -45.3245  -57.0561 C.3       10 UNK         0.0855 
     19 C          24.4860  -45.2505  -58.2416 C.2       10 UNK         0.5543 
     20 N          24.4838  -46.2422  -59.1227 N.am      10 UNK        -0.7343 
     21 O          23.7045  -44.3100  -58.3649 O.2       10 UNK        -0.5027 
     22 N          26.8378  -45.7337  -57.4810 N.am      10 UNK        -0.4495 
     23 C          27.7001  -45.0104  -58.2077 C.2       10 UNK         0.4903 
     24 O          27.4812  -43.8692  -58.6144 O.2       10 UNK        -0.4860 
     25 CA         29.0491  -45.6725  -58.5284 C.3       9 UNK         0.0227 
     26 CB         30.0843  -45.3171  -57.4507 C.3       9 UNK        -0.1964 
     27 N          28.9278  -47.1291  -58.6400 N.am      9 UNK        -0.4231 
     28 C          28.5914  -47.7585  -59.7761 C.2       9 UNK         0.5014 
     29 O          28.4364  -47.1840  -60.8549 O.2       9 UNK        -0.5270 
     30 CA         28.3766  -49.2832  -59.7174 C.3       8 UNK         0.0284 
     31 CB         29.6663  -50.0325  -60.0910 C.3       8 UNK        -0.1977 
     32 N          27.8721  -49.7888  -58.4370 N.am      8 UNK        -0.4342 
     33 C          26.7060  -49.4416  -57.8767 C.2       8 UNK         0.5039 
     34 O          25.9479  -48.5939  -58.3502 O.2       8 UNK        -0.5547 
     35 CA         26.3163  -50.1242  -56.5606 C.3       7 UNK         0.0281 
     36 CB         27.2342  -51.2908  -56.1391 C.3       7 UNK        -0.1963 
     37 N          26.3267  -49.1048  -55.5194 N.am      7 UNK        -0.4444 
     38 C          25.3255  -48.8394  -54.6723 C.2       7 UNK         0.5104 
     39 O          24.2515  -49.4433  -54.6753 O.2       7 UNK        -0.5100 
     40 CA         25.5460  -47.6948  -53.6585 C.3       6 UNK         0.0396 
     41 CB         24.9189  -48.0012  -52.2821 C.3       6 UNK        -0.1801 
     42 N          26.9478  -47.2725  -53.5160 N.am      6 UNK        -0.4747 
     43 C          27.9732  -48.0116  -53.0667 C.2       6 UNK         0.5012 
     44 O          27.8647  -49.1728  -52.6675 O.2       6 UNK        -0.5003 
     45 CA         29.3647  -47.3459  -53.0764 C.3       5 UNK         0.0782 
     46 C46        29.8163  -47.1424  -51.6050 C.3       11 UNK        -0.0868 
     47 S47        31.3095  -46.1240  -51.3841 S.3       11 UNK        -0.2515 
     48 C48        30.6139  -44.4591  -51.1152 C.3       11 UNK         0.0199 
     49 N          30.3124  -48.1381  -53.8798 N.am      5 UNK        -0.4607 
     50 C          30.1284  -48.4857  -55.1684 C.2       4 UNK         0.5031 
     51 O          29.1746  -48.0972  -55.8507 O.2       4 UNK        -0.5119 
     52 CA         31.1412  -49.4383  -55.8360 C.3       4 UNK         0.0263 
     53 CB         31.8807  -48.7629  -57.0020 C.3       4 UNK        -0.1967 
     54 N          32.1202  -50.0204  -54.9182 N.am      4 UNK        -0.4237 
     55 C          31.8763  -51.0666  -54.1148 C.2       3 UNK         0.4908 
     56 O          30.7983  -51.6603  -54.0801 O.2       3 UNK        -0.5102 
     57 CA         33.0187  -51.5447  -53.1963 C.3       3 UNK         0.0241 
     58 CB         33.6774  -52.8088  -53.7727 C.3       3 UNK        -0.1971 
     59 N          34.0543  -50.5365  -52.9499 N.am      3 UNK        -0.4139 
     60 C          33.8579  -49.3771  -52.3079 C.2       2 UNK         0.5016 
     61 O          32.7740  -49.0479  -51.8294 O.2       2 UNK        -0.5319 
     62 CA         35.0533  -48.4094  -52.2100 C.3       2 UNK         0.0286 
     63 CB         36.4274  -49.1006  -52.3599 C.3       2 UNK        -0.1963 
     64 N          34.9476  -47.2900  -53.1545 N.am      2 UNK        -0.4790 
     65 C          34.7809  -47.3430  -54.4840 C.2       1 UNK         0.5024 
     66 O          34.6491  -48.3960  -55.1100 O.2       1 UNK        -0.4888 
     67 H67        37.8417  -43.8020  -52.7695 H         1 UNK         0.0892 
     68 H68        37.8307  -43.5064  -54.5096 H         1 UNK         0.0892 
     69 H69        36.8956  -42.4670  -53.4332 H         1 UNK         0.0892 
     70 H70        36.5759  -44.9771  -55.5793 H         1 UNK         0.3107 
     71 H71        34.9934  -46.2707  -56.2977 H         1 UNK         0.0773 
     72 H72        32.6081  -46.0668  -55.5658 H         1 UNK         0.0680 
     73 H73        33.1051  -45.1054  -54.2245 H         1 UNK         0.0680 
     74 H74        32.6921  -41.6217  -55.7615 H         1 UNK         0.0650 
     75 H75        33.6434  -42.3838  -54.5101 H         1 UNK         0.0650 
     76 H76        32.5810  -43.5004  -52.6705 H         1 UNK         0.1397 
     77 H77        28.3194  -43.8540  -52.4979 H         1 UNK         0.1363 
     78 H78        30.2107  -42.2579  -56.0118 H         1 UNK         0.1355 
     79 H79        27.2944  -41.9059  -54.6392 H         1 UNK         0.0707 
     80 H80        27.8976  -42.7052  -56.0743 H         1 UNK         0.0707 
     81 H81        24.4675  -43.9018  -55.7495 H         1 UNK         0.1034 
     82 H82        25.7099  -43.1686  -56.7189 H         1 UNK         0.1034 
     83 H83        25.1238  -46.1500  -56.4453 H         1 UNK         0.0482 
     84 H84        25.0803  -47.0540  -58.9737 H         1 UNK         0.3460 
     85 H85        23.8434  -46.2198  -59.8996 H         1 UNK         0.3460 
     86 H86        27.0885  -46.6855  -57.2633 H         1 UNK         0.2989 
     87 H87        29.4081  -45.2655  -59.4762 H         1 UNK         0.0559 
     88 H88        30.2766  -44.2444  -57.4486 H         1 UNK         0.0848 
     89 H89        29.7479  -45.5842  -56.4484 H         1 UNK         0.0848 
     90 H90        31.0381  -45.8111  -57.6325 H         1 UNK         0.0848 
     91 H91        29.0250  -47.6622  -57.7810 H         1 UNK         0.3144 
     92 H92        27.6230  -49.5217  -60.4710 H         1 UNK         0.0727 
     93 H93        29.4861  -51.1023  -60.1984 H         1 UNK         0.0790 
     94 H94        30.4478  -49.8982  -59.3439 H         1 UNK         0.0790 
     95 H95        30.0624  -49.6775  -61.0436 H         1 UNK         0.0790 
     96 H96        28.4317  -50.4892  -57.9738 H         1 UNK         0.3215 
     97 H97        25.3077  -50.5170  -56.7056 H         1 UNK         0.0863 
     98 H98        26.8549  -51.7695  -55.2360 H         1 UNK         0.0808 
     99 H99        27.2803  -52.0621  -56.9092 H         1 UNK         0.0808 
    100 H100       28.2507  -50.9619  -55.9225 H         1 UNK         0.0808 
    101 H101       27.1782  -48.5582  -55.4489 H         1 UNK         0.3118 
    102 H102       25.0172  -46.8332  -54.0671 H         1 UNK         0.0546 
    103 H103       23.8426  -48.1547  -52.3676 H         1 UNK         0.0828 
    104 H104       25.0711  -47.1780  -51.5844 H         1 UNK         0.0828 
    105 H105       25.3383  -48.9031  -51.8357 H         1 UNK         0.0828 
    106 H106       27.1340  -46.3292  -53.8371 H         1 UNK         0.3005 
    107 H107       29.2833  -46.3681  -53.5551 H         1 UNK         0.1257 
    108 H108       30.0156  -48.1111  -51.1418 H         1 UNK         0.0775 
    109 H109       29.0159  -46.6956  -51.0117 H         1 UNK         0.0775 
    110 H110       29.6657  -44.5124  -50.5787 H         1 UNK         0.0840 
    111 H111       31.2938  -43.8912  -50.4783 H         1 UNK         0.0840 
    112 H112       31.1098  -48.5080  -53.3778 H         1 UNK         0.2987 
    113 H113       30.5540  -50.2528  -56.2641 H         1 UNK         0.0785 
    114 H114       31.1878  -48.3125  -57.7096 H         1 UNK         0.0798 
    115 H115       32.4786  -49.4858  -57.5572 H         1 UNK         0.0798 
    116 H116       32.5506  -47.9770  -56.6645 H         1 UNK         0.0798 
    117 H117       33.0383  -49.5862  -54.8950 H         1 UNK         0.3079 
    118 H118       32.5704  -51.8002  -52.2338 H         1 UNK         0.0794 
    119 H119       32.9381  -53.5938  -53.9385 H         1 UNK         0.0786 
    120 H120       34.4272  -53.2124  -53.0918 H         1 UNK         0.0786 
    121 H121       34.1623  -52.6106  -54.7295 H         1 UNK         0.0786 
    122 H122       34.9671  -50.7133  -53.3440 H         1 UNK         0.3032 
    123 H123       35.0077  -47.9774  -51.2087 H         1 UNK         0.1094 
    124 H124       37.2366  -48.4040  -52.1401 H         1 UNK         0.0794 
    125 H125       36.5285  -49.9340  -51.6631 H         1 UNK         0.0794 
    126 H126       36.5943  -49.4845  -53.3669 H         1 UNK         0.0794 
    127 H127       35.0008  -46.3565  -52.7501 H         1 UNK         0.3016 
@<TRIPOS>BOND
     1    1    2 1    
     2    1   67 1    
     3    1   68 1    
     4    1   69 1    
     5    2    3 2    
     6    2    4 am   BACKBONE|DICT|INTERRES
     7    4    5 1    
     8    4   70 1    
     9    5    6 1    
    10    5   65 1    
    11    5   71 1    
    12    6    7 1    
    13    6   72 1    
    14    6   73 1    
    15    7    8 1    
    16    8    9 1    
    17    8   74 1    
    18    8   75 1    
    19    9   10 ar   
    20    9   14 ar   
    21   10   11 ar   
    22   10   76 1    
    23   11   12 ar   
    24   11   48 1    
    25   12   13 ar   
    26   12   77 1    
    27   13   14 ar   
    28   13   15 1    
    29   14   78 1    
    30   15   16 1    
    31   15   79 1    
    32   15   80 1    
    33   16   17 1    
    34   17   18 1    
    35   17   81 1    
    36   17   82 1    
    37   18   19 1    
    38   18   22 1    
    39   18   83 1    
    40   19   20 am   BACKBONE|DICT|INTERRES
    41   19   21 2    
    42   20   84 1    
    43   20   85 1    
    44   22   23 am   BACKBONE|DICT|INTERRES
    45   22   86 1    
    46   23   24 2    
    47   23   25 1    
    48   25   26 1    
    49   25   27 1    
    50   25   87 1    
    51   26   88 1    
    52   26   89 1    
    53   26   90 1    
    54   27   28 am   BACKBONE|DICT|INTERRES
    55   27   91 1    
    56   28   29 2    
    57   28   30 1    
    58   30   31 1    
    59   30   32 1    
    60   30   92 1    
    61   31   93 1    
    62   31   94 1    
    63   31   95 1    
    64   32   33 am   BACKBONE|DICT|INTERRES
    65   32   96 1    
    66   33   34 2    
    67   33   35 1    
    68   35   36 1    
    69   35   37 1    
    70   35   97 1    
    71   36   98 1    
    72   36   99 1    
    73   36  100 1    
    74   37   38 am   BACKBONE|DICT|INTERRES
    75   37  101 1    
    76   38   39 2    
    77   38   40 1    
    78   40   41 1    
    79   40   42 1    
    80   40  102 1    
    81   41  103 1    
    82   41  104 1    
    83   41  105 1    
    84   42   43 am   BACKBONE|DICT|INTERRES
    85   42  106 1    
    86   43   44 2    
    87   43   45 1    
    88   45   46 1    
    89   45   49 1    
    90   45  107 1    
    91   46   47 1    
    92   46  108 1    
    93   46  109 1    
    94   47   48 1    
    95   48  110 1    
    96   48  111 1    
    97   49   50 am   BACKBONE|DICT|INTERRES
    98   49  112 1    
    99   50   51 2    
   100   50   52 1    
   101   52   53 1    
   102   52   54 1    
   103   52  113 1    
   104   53  114 1    
   105   53  115 1    
   106   53  116 1    
   107   54   55 am   BACKBONE|DICT|INTERRES
   108   54  117 1    
   109   55   56 2    
   110   55   57 1    
   111   57   58 1    
   112   57   59 1    
   113   57  118 1    
   114   58  119 1    
   115   58  120 1    
   116   58  121 1    
   117   59   60 am   BACKBONE|DICT|INTERRES
   118   59  122 1    
   119   60   61 2    
   120   60   62 1    
   121   62   63 1    
   122   62   64 1    
   123   62  123 1    
   124   63  124 1    
   125   63  125 1    
   126   63  126 1    
   127   64   65 am   BACKBONE|DICT|INTERRES
   128   64  127 1    
   129   65   66 2    
@<TRIPOS>SUBSTRUCTURE
     1 UNK         1 GROUP             0       ****    0 ROOT    
