@<TRIPOS>MOLECULE
3R134
127   129    1
SMALL
USER_CHARGES


@<TRIPOS>ATOM
      1 CA         33.6436  -46.1056  -50.8614 C.3       0 UNK        -0.1968 
      2 C          34.3686  -46.2266  -52.1925 C.2       0 UNK         0.4852 
      3 O          34.1506  -47.1958  -52.9158 O.2       0 UNK        -0.5359 
      4 N          35.2446  -45.2635  -52.5150 N.am      1 UNK        -0.4300 
      5 CA         36.0128  -45.1556  -53.7721 C.3       1 UNK         0.0863 
      6 C6         35.1323  -44.9049  -55.0337 C.3       11 UNK        -0.0953 
      7 S7         33.8217  -43.6530  -54.8046 S.3       11 UNK        -0.2369 
      8 C8         32.3547  -44.7111  -55.0066 C.3       11 UNK         0.0226 
      9 C9         31.1154  -44.1050  -54.3728 C.ar      11 UNK        -0.0699 
     10 C10        30.9631  -44.1332  -52.9852 C.ar      11 UNK        -0.0804 
     11 C11        29.7818  -43.6847  -52.3888 C.ar      11 UNK        -0.0871 
     12 C12        28.7550  -43.1813  -53.1937 C.ar      11 UNK        -0.1008 
     13 C13        28.9038  -43.1309  -54.5833 C.ar      11 UNK        -0.0735 
     14 C14        30.0923  -43.5823  -55.1670 C.ar      11 UNK        -0.0945 
     15 C15        27.7727  -42.6055  -55.4558 C.3       11 UNK         0.0169 
     16 S16        26.4567  -43.8440  -55.7041 S.3       11 UNK        -0.2669 
     17 C17        27.3223  -45.1255  -56.6759 C.3       11 UNK        -0.0850 
     18 CA         27.3016  -44.8223  -58.1964 C.3       10 UNK         0.0855 
     19 C          28.3820  -45.6417  -58.9622 C.2       10 UNK         0.5543 
     20 N          28.0465  -46.4313  -59.9760 N.am      10 UNK        -0.7343 
     21 O          29.5619  -45.5452  -58.6351 O.2       10 UNK        -0.5027 
     22 N          25.9438  -44.9475  -58.7461 N.am      10 UNK        -0.4495 
     23 C          25.4947  -44.2912  -59.8241 C.2       10 UNK         0.4903 
     24 O          26.1413  -43.4212  -60.4102 O.2       10 UNK        -0.4860 
     25 CA         24.0915  -44.6816  -60.3401 C.3       9 UNK         0.0227 
     26 CB         23.8857  -44.3234  -61.8277 C.3       9 UNK        -0.1964 
     27 N          23.7482  -46.0907  -60.0977 N.am      9 UNK        -0.4231 
     28 C          24.4347  -47.1674  -60.5074 C.2       9 UNK         0.5014 
     29 O          25.4580  -47.1227  -61.1940 O.2       9 UNK        -0.5270 
     30 CA         23.9224  -48.5289  -60.0141 C.3       8 UNK         0.0284 
     31 CB         23.5806  -49.4516  -61.1961 C.3       8 UNK        -0.1977 
     32 N          24.9102  -49.1829  -59.1519 N.am      8 UNK        -0.4342 
     33 C          25.3391  -48.7032  -57.9773 C.2       8 UNK         0.5039 
     34 O          24.9467  -47.6433  -57.4790 O.2       8 UNK        -0.5547 
     35 CA         26.3829  -49.5439  -57.2357 C.3       7 UNK         0.0281 
     36 CB         27.8139  -49.1697  -57.6593 C.3       7 UNK        -0.1963 
     37 N          26.2157  -49.3235  -55.8038 N.am      7 UNK        -0.4444 
     38 C          26.5244  -50.1974  -54.8429 C.2       7 UNK         0.5104 
     39 O          27.0640  -51.2859  -55.0514 O.2       7 UNK        -0.5100 
     40 CA         26.1863  -49.7732  -53.4037 C.3       6 UNK         0.0396 
     41 CB         25.8912  -50.9830  -52.4984 C.3       6 UNK        -0.1801 
     42 N          27.2842  -49.0043  -52.8224 N.am      6 UNK        -0.4747 
     43 C          27.5539  -47.7168  -53.0833 C.2       6 UNK         0.5012 
     44 O          26.8642  -47.0172  -53.8238 O.2       6 UNK        -0.5003 
     45 CA         28.7864  -47.1037  -52.3854 C.3       5 UNK         0.0782 
     46 C46        28.3396  -46.2956  -51.1391 C.3       11 UNK        -0.0868 
     47 S47        29.7293  -45.4895  -50.2726 S.3       11 UNK        -0.2515 
     48 C48        29.6082  -43.7734  -50.8788 C.3       11 UNK         0.0199 
     49 N          29.7950  -48.1217  -52.0574 N.am      5 UNK        -0.4607 
     50 C          30.5976  -48.7054  -52.9554 C.2       4 UNK         0.5031 
     51 O          30.6120  -48.4235  -54.1561 O.2       4 UNK        -0.5119 
     52 CA         31.5051  -49.8219  -52.4277 C.3       4 UNK         0.0263 
     53 CB         30.7377  -51.1540  -52.3302 C.3       4 UNK        -0.1967 
     54 N          32.6405  -49.9607  -53.3330 N.am      4 UNK        -0.4237 
     55 C          33.8446  -50.4422  -53.0063 C.2       3 UNK         0.4908 
     56 O          34.1078  -50.9308  -51.9056 O.2       3 UNK        -0.5102 
     57 CA         34.9613  -50.3440  -54.0578 C.3       3 UNK         0.0241 
     58 CB         34.4823  -49.9352  -55.4671 C.3       3 UNK        -0.1971 
     59 N          35.9206  -49.3579  -53.5735 N.am      3 UNK        -0.4139 
     60 C          37.2513  -49.4994  -53.5219 C.2       2 UNK         0.5016 
     61 O          37.8445  -50.5000  -53.9299 O.2       2 UNK        -0.5319 
     62 CA         38.0582  -48.3396  -52.8906 C.3       2 UNK         0.0286 
     63 CB         39.4844  -48.2164  -53.4703 C.3       2 UNK        -0.1963 
     64 N          37.3544  -47.0474  -52.9182 N.am      2 UNK        -0.4790 
     65 C          36.9837  -46.3436  -54.0016 C.2       1 UNK         0.5024 
     66 O          37.3452  -46.6219  -55.1462 O.2       1 UNK        -0.4888 
     67 H67        34.0990  -46.7668  -50.1250 H         1 UNK         0.0892 
     68 H68        33.6706  -45.0868  -50.4753 H         1 UNK         0.0892 
     69 H69        32.5998  -46.3963  -50.9761 H         1 UNK         0.0892 
     70 H70        35.3871  -44.5000  -51.8680 H         1 UNK         0.3107 
     71 H71        36.6510  -44.2797  -53.6465 H         1 UNK         0.0773 
     72 H72        34.6811  -45.8401  -55.3713 H         1 UNK         0.0680 
     73 H73        35.7586  -44.5683  -55.8618 H         1 UNK         0.0680 
     74 H74        32.5283  -45.6856  -54.5480 H         1 UNK         0.0650 
     75 H75        32.1957  -44.9002  -56.0695 H         1 UNK         0.0650 
     76 H76        31.7526  -44.5395  -52.3702 H         1 UNK         0.1397 
     77 H77        27.8309  -42.8431  -52.7447 H         1 UNK         0.1363 
     78 H78        30.2051  -43.5630  -56.2427 H         1 UNK         0.1355 
     79 H79        27.3373  -41.7206  -54.9891 H         1 UNK         0.0707 
     80 H80        28.1529  -42.2795  -56.4251 H         1 UNK         0.0707 
     81 H81        28.3380  -45.2363  -56.2986 H         1 UNK         0.1034 
     82 H82        26.8450  -46.0852  -56.4746 H         1 UNK         0.1034 
     83 H83        27.6129  -43.7834  -58.3189 H         1 UNK         0.0482 
     84 H84        28.7718  -46.9364  -60.4583 H         1 UNK         0.3460 
     85 H85        27.0850  -46.5186  -60.2892 H         1 UNK         0.3460 
     86 H86        25.3693  -45.6743  -58.3344 H         1 UNK         0.2989 
     87 H87        23.3830  -44.0911  -59.7576 H         1 UNK         0.0559 
     88 H88        24.0056  -43.2521  -61.9943 H         1 UNK         0.0848 
     89 H89        22.8849  -44.5909  -62.1665 H         1 UNK         0.0848 
     90 H90        24.6048  -44.8340  -62.4694 H         1 UNK         0.0848 
     91 H91        22.9471  -46.2435  -59.4995 H         1 UNK         0.3144 
     92 H92        23.0136  -48.3790  -59.4272 H         1 UNK         0.0727 
     93 H93        24.4580  -49.6697  -61.8067 H         1 UNK         0.0790 
     94 H94        22.8379  -48.9896  -61.8481 H         1 UNK         0.0790 
     95 H95        23.1647  -50.3996  -60.8541 H         1 UNK         0.0790 
     96 H96        25.3143  -50.0389  -59.5040 H         1 UNK         0.3215 
     97 H97        26.2001  -50.5968  -57.4623 H         1 UNK         0.0863 
     98 H98        28.5483  -49.8282  -57.1951 H         1 UNK         0.0808 
     99 H99        28.0617  -48.1475  -57.3741 H         1 UNK         0.0808 
    100 H100       27.9416  -49.2508  -58.7395 H         1 UNK         0.0808 
    101 H101       25.7812  -48.4394  -55.5613 H         1 UNK         0.3118 
    102 H102       25.2886  -49.1513  -53.4293 H         1 UNK         0.0546 
    103 H103       26.7606  -51.6325  -52.3882 H         1 UNK         0.0828 
    104 H104       25.0831  -51.5888  -52.9105 H         1 UNK         0.0828 
    105 H105       25.5814  -50.6665  -51.5024 H         1 UNK         0.0828 
    106 H106       27.9214  -49.5098  -52.2254 H         1 UNK         0.3005 
    107 H107       29.2291  -46.4094  -53.1032 H         1 UNK         0.1257 
    108 H108       27.8357  -46.9473  -50.4227 H         1 UNK         0.0775 
    109 H109       27.6077  -45.5346  -51.4179 H         1 UNK         0.0775 
    110 H110       28.6512  -43.3513  -50.5677 H         1 UNK         0.0840 
    111 H111       30.3801  -43.1723  -50.3963 H         1 UNK         0.0840 
    112 H112       29.8598  -48.3864  -51.0849 H         1 UNK         0.2987 
    113 H113       31.8710  -49.5310  -51.4403 H         1 UNK         0.0785 
    114 H114       29.8947  -51.0745  -51.6431 H         1 UNK         0.0798 
    115 H115       31.3775  -51.9559  -51.9614 H         1 UNK         0.0798 
    116 H116       30.3422  -51.4610  -53.2996 H         1 UNK         0.0798 
    117 H117       32.5069  -49.5082  -54.2294 H         1 UNK         0.3079 
    118 H118       35.4252  -51.3306  -54.1192 H         1 UNK         0.0794 
    119 H119       35.3114  -49.9456  -56.1749 H         1 UNK         0.0786 
    120 H120       34.0573  -48.9302  -55.4798 H         1 UNK         0.0786 
    121 H121       33.7293  -50.6271  -55.8468 H         1 UNK         0.0786 
    122 H122       35.4965  -48.5061  -53.2114 H         1 UNK         0.3032 
    123 H123       38.1609  -48.6015  -51.8361 H         1 UNK         0.1094 
    124 H124       39.4741  -48.0557  -54.5485 H         1 UNK         0.0794 
    125 H125       40.0301  -47.3917  -53.0120 H         1 UNK         0.0794 
    126 H126       40.0599  -49.1244  -53.2864 H         1 UNK         0.0794 
    127 H127       37.0097  -46.7235  -52.0248 H         1 UNK         0.3016 
@<TRIPOS>BOND
     1    1    2 1    
     2    1   67 1    
     3    1   68 1    
     4    1   69 1    
     5    2    3 2    
     6    2    4 am   BACKBONE|DICT|INTERRES
     7    4    5 1    
     8    4   70 1    
     9    5    6 1    
    10    5   65 1    
    11    5   71 1    
    12    6    7 1    
    13    6   72 1    
    14    6   73 1    
    15    7    8 1    
    16    8    9 1    
    17    8   74 1    
    18    8   75 1    
    19    9   10 ar   
    20    9   14 ar   
    21   10   11 ar   
    22   10   76 1    
    23   11   12 ar   
    24   11   48 1    
    25   12   13 ar   
    26   12   77 1    
    27   13   14 ar   
    28   13   15 1    
    29   14   78 1    
    30   15   16 1    
    31   15   79 1    
    32   15   80 1    
    33   16   17 1    
    34   17   18 1    
    35   17   81 1    
    36   17   82 1    
    37   18   19 1    
    38   18   22 1    
    39   18   83 1    
    40   19   20 am   BACKBONE|DICT|INTERRES
    41   19   21 2    
    42   20   84 1    
    43   20   85 1    
    44   22   23 am   BACKBONE|DICT|INTERRES
    45   22   86 1    
    46   23   24 2    
    47   23   25 1    
    48   25   26 1    
    49   25   27 1    
    50   25   87 1    
    51   26   88 1    
    52   26   89 1    
    53   26   90 1    
    54   27   28 am   BACKBONE|DICT|INTERRES
    55   27   91 1    
    56   28   29 2    
    57   28   30 1    
    58   30   31 1    
    59   30   32 1    
    60   30   92 1    
    61   31   93 1    
    62   31   94 1    
    63   31   95 1    
    64   32   33 am   BACKBONE|DICT|INTERRES
    65   32   96 1    
    66   33   34 2    
    67   33   35 1    
    68   35   36 1    
    69   35   37 1    
    70   35   97 1    
    71   36   98 1    
    72   36   99 1    
    73   36  100 1    
    74   37   38 am   BACKBONE|DICT|INTERRES
    75   37  101 1    
    76   38   39 2    
    77   38   40 1    
    78   40   41 1    
    79   40   42 1    
    80   40  102 1    
    81   41  103 1    
    82   41  104 1    
    83   41  105 1    
    84   42   43 am   BACKBONE|DICT|INTERRES
    85   42  106 1    
    86   43   44 2    
    87   43   45 1    
    88   45   46 1    
    89   45   49 1    
    90   45  107 1    
    91   46   47 1    
    92   46  108 1    
    93   46  109 1    
    94   47   48 1    
    95   48  110 1    
    96   48  111 1    
    97   49   50 am   BACKBONE|DICT|INTERRES
    98   49  112 1    
    99   50   51 2    
   100   50   52 1    
   101   52   53 1    
   102   52   54 1    
   103   52  113 1    
   104   53  114 1    
   105   53  115 1    
   106   53  116 1    
   107   54   55 am   BACKBONE|DICT|INTERRES
   108   54  117 1    
   109   55   56 2    
   110   55   57 1    
   111   57   58 1    
   112   57   59 1    
   113   57  118 1    
   114   58  119 1    
   115   58  120 1    
   116   58  121 1    
   117   59   60 am   BACKBONE|DICT|INTERRES
   118   59  122 1    
   119   60   61 2    
   120   60   62 1    
   121   62   63 1    
   122   62   64 1    
   123   62  123 1    
   124   63  124 1    
   125   63  125 1    
   126   63  126 1    
   127   64   65 am   BACKBONE|DICT|INTERRES
   128   64  127 1    
   129   65   66 2    
@<TRIPOS>SUBSTRUCTURE
     1 UNK         1 GROUP             0       ****    0 ROOT    
