@<TRIPOS>MOLECULE
3R134
127   129    1
SMALL
USER_CHARGES


@<TRIPOS>ATOM
      1 CA         31.4907  -47.9311  -47.1489 C.3       0 UNK        -0.1968 
      2 C          31.6558  -47.2302  -48.4893 C.2       0 UNK         0.4852 
      3 O          31.1173  -47.7013  -49.4911 O.2       0 UNK        -0.5359 
      4 N          32.3965  -46.1125  -48.5106 N.am      1 UNK        -0.4300 
      5 CA         32.7240  -45.2767  -49.6731 C.3       1 UNK         0.0863 
      6 C6         31.4734  -44.7301  -50.4189 C.3       11 UNK        -0.0953 
      7 S7         31.8513  -43.4455  -51.6623 S.3       11 UNK        -0.2369 
      8 C8         30.5262  -43.7266  -52.8862 C.3       11 UNK         0.0226 
      9 C9         30.9983  -43.5222  -54.3207 C.ar      11 UNK        -0.0699 
     10 C10        32.0955  -44.2361  -54.8126 C.ar      11 UNK        -0.0804 
     11 C11        32.5186  -44.0742  -56.1346 C.ar      11 UNK        -0.0871 
     12 C12        31.8381  -43.1815  -56.9664 C.ar      11 UNK        -0.1008 
     13 C13        30.7185  -42.4835  -56.5010 C.ar      11 UNK        -0.0735 
     14 C14        30.3104  -42.6532  -55.1735 C.ar      11 UNK        -0.0945 
     15 C15        29.9326  -41.5528  -57.4222 C.3       11 UNK         0.0169 
     16 S16        29.6459  -42.2223  -59.1006 S.3       11 UNK        -0.2669 
     17 C17        28.8515  -43.8287  -58.7483 C.3       11 UNK        -0.0850 
     18 CA         27.3126  -43.7334  -58.5676 C.3       10 UNK         0.0855 
     19 C          26.5502  -43.8497  -59.9241 C.2       10 UNK         0.5543 
     20 N          25.6756  -44.8291  -60.1257 N.am      10 UNK        -0.7343 
     21 O          26.7479  -43.0266  -60.8139 O.2       10 UNK        -0.5027 
     22 N          26.8606  -44.6639  -57.5226 N.am      10 UNK        -0.4495 
     23 C          25.6980  -44.5720  -56.8651 C.2       10 UNK         0.4903 
     24 O          24.9132  -43.6306  -56.9928 O.2       10 UNK        -0.4860 
     25 CA         25.3542  -45.7413  -55.9206 C.3       9 UNK         0.0227 
     26 CB         23.8646  -45.7701  -55.5188 C.3       9 UNK        -0.1964 
     27 N          25.7698  -47.0499  -56.4434 N.am      9 UNK        -0.4231 
     28 C          25.4180  -47.6127  -57.6115 C.2       9 UNK         0.5014 
     29 O          24.6640  -47.0741  -58.4234 O.2       9 UNK        -0.5270 
     30 CA         26.0282  -48.9819  -57.9748 C.3       8 UNK         0.0284 
     31 CB         26.9001  -48.8552  -59.2361 C.3       8 UNK        -0.1977 
     32 N          26.8319  -49.5798  -56.9057 N.am      8 UNK        -0.4342 
     33 C          26.3458  -50.1630  -55.8019 C.2       8 UNK         0.5039 
     34 O          25.1461  -50.3469  -55.5952 O.2       8 UNK        -0.5547 
     35 CA         27.3714  -50.5544  -54.7216 C.3       7 UNK         0.0281 
     36 CB         27.9673  -51.9415  -55.0077 C.3       7 UNK        -0.1963 
     37 N          28.4504  -49.5696  -54.5773 N.am      7 UNK        -0.4444 
     38 C          28.2706  -48.2929  -54.2065 C.2       7 UNK         0.5104 
     39 O          27.1783  -47.8161  -53.9018 O.2       7 UNK        -0.5100 
     40 CA         29.5010  -47.3769  -54.2358 C.3       6 UNK         0.0396 
     41 CB         30.3402  -47.5533  -52.9638 C.3       6 UNK        -0.1801 
     42 N          30.3270  -47.6141  -55.4185 N.am      6 UNK        -0.4747 
     43 C          29.9892  -47.2464  -56.6633 C.2       6 UNK         0.5012 
     44 O          28.9572  -46.6315  -56.9389 O.2       6 UNK        -0.5003 
     45 CA         30.9270  -47.7024  -57.8020 C.3       5 UNK         0.0782 
     46 C46        32.0423  -46.6708  -58.1105 C.3       11 UNK        -0.0868 
     47 S47        33.3747  -46.6326  -56.8590 S.3       11 UNK        -0.2515 
     48 C48        33.7150  -44.8518  -56.6663 C.3       11 UNK         0.0199 
     49 N          31.4627  -49.0515  -57.5802 N.am      5 UNK        -0.4607 
     50 C          30.7187  -50.1640  -57.5662 C.2       4 UNK         0.5031 
     51 O          29.5037  -50.1702  -57.7559 O.2       4 UNK        -0.5119 
     52 CA         31.4359  -51.4893  -57.2609 C.3       4 UNK         0.0263 
     53 CB         32.0600  -52.0660  -58.5415 C.3       4 UNK        -0.1967 
     54 N          32.4565  -51.4164  -56.2082 N.am      4 UNK        -0.4237 
     55 C          32.2627  -50.9868  -54.9520 C.2       3 UNK         0.4908 
     56 O          31.2093  -50.4806  -54.5644 O.2       3 UNK        -0.5102 
     57 CA         33.4227  -51.1624  -53.9536 C.3       3 UNK         0.0241 
     58 CB         34.6102  -51.9818  -54.5031 C.3       3 UNK        -0.1971 
     59 N          33.9111  -49.8528  -53.5255 N.am      3 UNK        -0.4139 
     60 C          33.6192  -49.2463  -52.3672 C.2       2 UNK         0.5016 
     61 O          32.9206  -49.7467  -51.4833 O.2       2 UNK        -0.5319 
     62 CA         34.2201  -47.8449  -52.1575 C.3       2 UNK         0.0286 
     63 CB         34.3736  -47.0625  -53.4809 C.3       2 UNK        -0.1963 
     64 N          33.3995  -47.0910  -51.2072 N.am      2 UNK        -0.4790 
     65 C          33.7585  -45.9539  -50.5991 C.2       1 UNK         0.5024 
     66 O          34.8695  -45.4372  -50.7305 O.2       1 UNK        -0.4888 
     67 H67        31.8820  -48.9464  -47.2075 H         1 UNK         0.0892 
     68 H68        32.0146  -47.4110  -46.3473 H         1 UNK         0.0892 
     69 H69        30.4353  -47.9874  -46.8837 H         1 UNK         0.0892 
     70 H70        32.8231  -45.8064  -47.6468 H         1 UNK         0.3107 
     71 H71        33.2304  -44.4086  -49.2472 H         1 UNK         0.0773 
     72 H72        30.9325  -45.5468  -50.8930 H         1 UNK         0.0680 
     73 H73        30.7796  -44.2929  -49.6995 H         1 UNK         0.0680 
     74 H74        29.6970  -43.0582  -52.6501 H         1 UNK         0.0650 
     75 H75        30.1308  -44.7362  -52.8017 H         1 UNK         0.0650 
     76 H76        32.6196  -44.9177  -54.1603 H         1 UNK         0.1397 
     77 H77        32.1640  -43.0482  -57.9888 H         1 UNK         0.1363 
     78 H78        29.4477  -42.1146  -54.8057 H         1 UNK         0.1355 
     79 H79        30.4731  -40.6096  -57.5091 H         1 UNK         0.0707 
     80 H80        28.9627  -41.3133  -56.9832 H         1 UNK         0.0707 
     81 H81        29.1127  -44.5337  -59.5398 H         1 UNK         0.1034 
     82 H82        29.3150  -44.2390  -57.8524 H         1 UNK         0.1034 
     83 H83        27.0845  -42.7344  -58.1913 H         1 UNK         0.0482 
     84 H84        25.1932  -44.8775  -61.0086 H         1 UNK         0.3460 
     85 H85        25.4604  -45.5055  -59.4015 H         1 UNK         0.3460 
     86 H86        27.4639  -45.4623  -57.3425 H         1 UNK         0.2989 
     87 H87        25.9379  -45.5772  -55.0140 H         1 UNK         0.0559 
     88 H88        23.2142  -45.8843  -56.3867 H         1 UNK         0.0848 
     89 H89        23.5760  -44.8470  -55.0147 H         1 UNK         0.0848 
     90 H90        23.6558  -46.5909  -54.8326 H         1 UNK         0.0848 
     91 H91        26.3999  -47.5646  -55.8392 H         1 UNK         0.3144 
     92 H92        25.1988  -49.6558  -58.1988 H         1 UNK         0.0727 
     93 H93        27.3014  -49.8221  -59.5403 H         1 UNK         0.0790 
     94 H94        27.7405  -48.1788  -59.0763 H         1 UNK         0.0790 
     95 H95        26.3240  -48.4664  -60.0770 H         1 UNK         0.0790 
     96 H96        27.8411  -49.5627  -57.0366 H         1 UNK         0.3215 
     97 H97        26.8432  -50.6013  -53.7668 H         1 UNK         0.0863 
     98 H98        28.6822  -52.2345  -54.2385 H         1 UNK         0.0808 
     99 H99        28.4781  -51.9709  -55.9696 H         1 UNK         0.0808 
    100 H100       27.1855  -52.7017  -55.0324 H         1 UNK         0.0808 
    101 H101       29.4002  -49.8877  -54.7574 H         1 UNK         0.3118 
    102 H102       29.1491  -46.3438  -54.2721 H         1 UNK         0.0546 
    103 H103       31.2085  -46.8966  -52.9706 H         1 UNK         0.0828 
    104 H104       30.6931  -48.5771  -52.8436 H         1 UNK         0.0828 
    105 H105       29.7538  -47.3132  -52.0762 H         1 UNK         0.0828 
    106 H106       31.1549  -48.1793  -55.2929 H         1 UNK         0.3005 
    107 H107       30.2969  -47.7598  -58.6929 H         1 UNK         0.1257 
    108 H108       31.6132  -45.6769  -58.2426 H         1 UNK         0.0775 
    109 H109       32.5036  -46.9149  -59.0685 H         1 UNK         0.0775 
    110 H110       34.5532  -44.7285  -55.9791 H         1 UNK         0.0840 
    111 H111       34.0471  -44.4488  -57.6245 H         1 UNK         0.0840 
    112 H112       32.4548  -49.1172  -57.4047 H         1 UNK         0.2987 
    113 H113       30.6757  -52.1919  -56.9150 H         1 UNK         0.0785 
    114 H114       31.3161  -52.1487  -59.3354 H         1 UNK         0.0798 
    115 H115       32.4613  -53.0656  -58.3733 H         1 UNK         0.0798 
    116 H116       32.8685  -51.4373  -58.9169 H         1 UNK         0.0798 
    117 H117       33.3585  -51.8092  -56.4350 H         1 UNK         0.3079 
    118 H118       33.0146  -51.7067  -53.0993 H         1 UNK         0.0794 
    119 H119       35.0974  -51.4931  -55.3479 H         1 UNK         0.0786 
    120 H120       34.2941  -52.9763  -54.8220 H         1 UNK         0.0786 
    121 H121       35.3675  -52.1272  -53.7322 H         1 UNK         0.0786 
    122 H122       34.4680  -49.3447  -54.1973 H         1 UNK         0.3032 
    123 H123       35.2080  -47.9863  -51.7138 H         1 UNK         0.1094 
    124 H124       34.7067  -46.0375  -53.3206 H         1 UNK         0.0794 
    125 H125       33.4270  -47.0248  -54.0175 H         1 UNK         0.0794 
    126 H126       35.1114  -47.5219  -54.1393 H         1 UNK         0.0794 
    127 H127       32.5167  -47.5255  -50.9435 H         1 UNK         0.3016 
@<TRIPOS>BOND
     1    1    2 1    
     2    1   67 1    
     3    1   68 1    
     4    1   69 1    
     5    2    3 2    
     6    2    4 am   BACKBONE|DICT|INTERRES
     7    4    5 1    
     8    4   70 1    
     9    5    6 1    
    10    5   65 1    
    11    5   71 1    
    12    6    7 1    
    13    6   72 1    
    14    6   73 1    
    15    7    8 1    
    16    8    9 1    
    17    8   74 1    
    18    8   75 1    
    19    9   10 ar   
    20    9   14 ar   
    21   10   11 ar   
    22   10   76 1    
    23   11   12 ar   
    24   11   48 1    
    25   12   13 ar   
    26   12   77 1    
    27   13   14 ar   
    28   13   15 1    
    29   14   78 1    
    30   15   16 1    
    31   15   79 1    
    32   15   80 1    
    33   16   17 1    
    34   17   18 1    
    35   17   81 1    
    36   17   82 1    
    37   18   19 1    
    38   18   22 1    
    39   18   83 1    
    40   19   20 am   BACKBONE|DICT|INTERRES
    41   19   21 2    
    42   20   84 1    
    43   20   85 1    
    44   22   23 am   BACKBONE|DICT|INTERRES
    45   22   86 1    
    46   23   24 2    
    47   23   25 1    
    48   25   26 1    
    49   25   27 1    
    50   25   87 1    
    51   26   88 1    
    52   26   89 1    
    53   26   90 1    
    54   27   28 am   BACKBONE|DICT|INTERRES
    55   27   91 1    
    56   28   29 2    
    57   28   30 1    
    58   30   31 1    
    59   30   32 1    
    60   30   92 1    
    61   31   93 1    
    62   31   94 1    
    63   31   95 1    
    64   32   33 am   BACKBONE|DICT|INTERRES
    65   32   96 1    
    66   33   34 2    
    67   33   35 1    
    68   35   36 1    
    69   35   37 1    
    70   35   97 1    
    71   36   98 1    
    72   36   99 1    
    73   36  100 1    
    74   37   38 am   BACKBONE|DICT|INTERRES
    75   37  101 1    
    76   38   39 2    
    77   38   40 1    
    78   40   41 1    
    79   40   42 1    
    80   40  102 1    
    81   41  103 1    
    82   41  104 1    
    83   41  105 1    
    84   42   43 am   BACKBONE|DICT|INTERRES
    85   42  106 1    
    86   43   44 2    
    87   43   45 1    
    88   45   46 1    
    89   45   49 1    
    90   45  107 1    
    91   46   47 1    
    92   46  108 1    
    93   46  109 1    
    94   47   48 1    
    95   48  110 1    
    96   48  111 1    
    97   49   50 am   BACKBONE|DICT|INTERRES
    98   49  112 1    
    99   50   51 2    
   100   50   52 1    
   101   52   53 1    
   102   52   54 1    
   103   52  113 1    
   104   53  114 1    
   105   53  115 1    
   106   53  116 1    
   107   54   55 am   BACKBONE|DICT|INTERRES
   108   54  117 1    
   109   55   56 2    
   110   55   57 1    
   111   57   58 1    
   112   57   59 1    
   113   57  118 1    
   114   58  119 1    
   115   58  120 1    
   116   58  121 1    
   117   59   60 am   BACKBONE|DICT|INTERRES
   118   59  122 1    
   119   60   61 2    
   120   60   62 1    
   121   62   63 1    
   122   62   64 1    
   123   62  123 1    
   124   63  124 1    
   125   63  125 1    
   126   63  126 1    
   127   64   65 am   BACKBONE|DICT|INTERRES
   128   64  127 1    
   129   65   66 2    
@<TRIPOS>SUBSTRUCTURE
     1 UNK         1 GROUP             0       ****    0 ROOT    
