@<TRIPOS>MOLECULE
3R134
127   129    1
SMALL
USER_CHARGES


@<TRIPOS>ATOM
      1 CA         33.2188  -43.1977  -49.7946 C.3       0 UNK        -0.1968 
      2 C          34.3704  -43.8546  -50.5416 C.2       0 UNK         0.4852 
      3 O          35.5234  -43.4694  -50.3406 O.2       0 UNK        -0.5359 
      4 N          34.0634  -44.8391  -51.3931 N.am      1 UNK        -0.4300 
      5 CA         35.0216  -45.6333  -52.1657 C.3       1 UNK         0.0863 
      6 C6         34.9921  -45.3111  -53.6840 C.3       11 UNK        -0.0953 
      7 S7         35.3359  -43.5579  -54.0601 S.3       11 UNK        -0.2369 
      8 C8         34.3078  -43.2756  -55.5473 C.3       11 UNK         0.0226 
      9 C9         32.7973  -43.4640  -55.3761 C.ar      11 UNK        -0.0699 
     10 C10        32.1728  -43.4828  -54.1223 C.ar      11 UNK        -0.0804 
     11 C11        30.7992  -43.7122  -54.0055 C.ar      11 UNK        -0.0871 
     12 C12        30.0305  -43.8669  -55.1614 C.ar      11 UNK        -0.1008 
     13 C13        30.6306  -43.8147  -56.4223 C.ar      11 UNK        -0.0735 
     14 C14        32.0114  -43.6216  -56.5221 C.ar      11 UNK        -0.0945 
     15 C15        29.7811  -43.9656  -57.6724 C.3       11 UNK         0.0169 
     16 S16        28.8767  -42.4245  -58.0191 S.3       11 UNK        -0.2669 
     17 C17        27.8195  -42.9184  -59.4215 C.3       11 UNK        -0.0850 
     18 CA         26.3827  -43.2917  -58.9723 C.3       10 UNK         0.0855 
     19 C          25.4576  -43.4865  -60.2028 C.2       10 UNK         0.5543 
     20 N          24.5522  -42.5525  -60.4583 N.am      10 UNK        -0.7343 
     21 O          25.5923  -44.4509  -60.9527 O.2       10 UNK        -0.5027 
     22 N          26.4002  -44.4785  -58.1103 N.am      10 UNK        -0.4495 
     23 C          25.3800  -44.9458  -57.3825 C.2       10 UNK         0.4903 
     24 O          24.2873  -44.3847  -57.2888 O.2       10 UNK        -0.4860 
     25 CA         25.6531  -46.2560  -56.6137 C.3       9 UNK         0.0227 
     26 CB         24.3653  -46.9907  -56.1865 C.3       9 UNK        -0.1964 
     27 N          26.5655  -47.1633  -57.3243 N.am      9 UNK        -0.4231 
     28 C          26.3739  -47.7216  -58.5315 C.2       9 UNK         0.5014 
     29 O          25.3564  -47.5823  -59.2101 O.2       9 UNK        -0.5270 
     30 CA         27.5148  -48.5933  -59.0674 C.3       8 UNK         0.0284 
     31 CB         28.7154  -47.7338  -59.5050 C.3       8 UNK        -0.1977 
     32 N          27.9273  -49.5574  -58.0470 N.am      8 UNK        -0.4342 
     33 C          27.6078  -50.8576  -58.0676 C.2       8 UNK         0.5039 
     34 O          27.0085  -51.4072  -58.9932 O.2       8 UNK        -0.5547 
     35 CA         28.0227  -51.6969  -56.8501 C.3       7 UNK         0.0281 
     36 CB         29.4790  -52.1704  -56.9893 C.3       7 UNK        -0.1963 
     37 N          27.8507  -51.0018  -55.5722 N.am      7 UNK        -0.4444 
     38 C          26.6670  -50.7050  -55.0154 C.2       7 UNK         0.5104 
     39 O          25.5822  -50.9230  -55.5549 O.2       7 UNK        -0.5100 
     40 CA         26.6908  -50.0784  -53.6128 C.3       6 UNK         0.0396 
     41 CB         26.9017  -51.1653  -52.5461 C.3       6 UNK        -0.1801 
     42 N          27.7501  -49.0766  -53.4945 N.am      6 UNK        -0.4747 
     43 C          27.5499  -47.7558  -53.3799 C.2       6 UNK         0.5012 
     44 O          26.4374  -47.2383  -53.2804 O.2       6 UNK        -0.5003 
     45 CA         28.7967  -46.8434  -53.3836 C.3       5 UNK         0.0782 
     46 C46        29.1122  -46.3597  -51.9462 C.3       11 UNK        -0.0868 
     47 S47        30.6228  -45.3468  -51.7914 S.3       11 UNK        -0.2515 
     48 C48        30.1636  -43.7929  -52.6252 C.3       11 UNK         0.0199 
     49 N          29.9588  -47.4459  -54.0462 N.am      5 UNK        -0.4607 
     50 C          30.0115  -47.7748  -55.3426 C.2       4 UNK         0.5031 
     51 O          29.0723  -47.6239  -56.1257 O.2       4 UNK        -0.5119 
     52 CA         31.3028  -48.4365  -55.8471 C.3       4 UNK         0.0263 
     53 CB         32.2904  -47.3585  -56.3164 C.3       4 UNK        -0.1967 
     54 N          31.9706  -49.3344  -54.8935 N.am      4 UNK        -0.4237 
     55 C          31.4143  -50.3423  -54.2065 C.2       3 UNK         0.4908 
     56 O          30.2026  -50.5595  -54.1769 O.2       3 UNK        -0.5102 
     57 CA         32.3455  -51.2904  -53.4280 C.3       3 UNK         0.0241 
     58 CB         32.8657  -52.4099  -54.3503 C.3       3 UNK        -0.1971 
     59 N          33.4464  -50.6542  -52.6882 N.am      3 UNK        -0.4139 
     60 C          34.4928  -49.9615  -53.1581 C.2       2 UNK         0.5016 
     61 O          34.6798  -49.7033  -54.3497 O.2       2 UNK        -0.5319 
     62 CA         35.4988  -49.4506  -52.1125 C.3       2 UNK         0.0286 
     63 CB         36.8669  -50.1285  -52.2949 C.3       2 UNK        -0.1963 
     64 N          35.6608  -47.9979  -52.1984 N.am      2 UNK        -0.4790 
     65 C          34.6880  -47.1161  -51.9333 C.2       1 UNK         0.5024 
     66 O          33.5637  -47.4415  -51.5399 O.2       1 UNK        -0.4888 
     67 H67        33.4604  -43.1047  -48.7361 H         1 UNK         0.0892 
     68 H68        33.0354  -42.1999  -50.1921 H         1 UNK         0.0892 
     69 H69        32.2977  -43.7732  -49.8771 H         1 UNK         0.0892 
     70 H70        33.1097  -45.1766  -51.4538 H         1 UNK         0.3107 
     71 H71        36.0331  -45.4649  -51.7900 H         1 UNK         0.0773 
     72 H72        35.7312  -45.9111  -54.2179 H         1 UNK         0.0680 
     73 H73        34.0246  -45.5855  -54.1033 H         1 UNK         0.0680 
     74 H74        34.4886  -42.2587  -55.8975 H         1 UNK         0.0650 
     75 H75        34.6675  -43.9417  -56.3332 H         1 UNK         0.0650 
     76 H76        32.7529  -43.3411  -53.2235 H         1 UNK         0.1397 
     77 H77        28.9623  -44.0147  -55.0886 H         1 UNK         0.1363 
     78 H78        32.4770  -43.5912  -57.4979 H         1 UNK         0.1355 
     79 H79        30.4002  -44.2258  -58.5325 H         1 UNK         0.0707 
     80 H80        29.0840  -44.7913  -57.5302 H         1 UNK         0.0707 
     81 H81        27.7894  -42.0738  -60.1130 H         1 UNK         0.1034 
     82 H82        28.2855  -43.7378  -59.9727 H         1 UNK         0.1034 
     83 H83        25.9897  -42.4653  -58.3760 H         1 UNK         0.0482 
     84 H84        23.9555  -42.6549  -61.2644 H         1 UNK         0.3460 
     85 H85        24.4411  -41.7549  -59.8514 H         1 UNK         0.3460 
     86 H86        27.2405  -45.0318  -58.1456 H         1 UNK         0.2989 
     87 H87        26.1767  -45.9595  -55.7044 H         1 UNK         0.0559 
     88 H88        23.7538  -46.3623  -55.5380 H         1 UNK         0.0848 
     89 H89        24.5961  -47.8989  -55.6292 H         1 UNK         0.0848 
     90 H90        23.7520  -47.2682  -57.0441 H         1 UNK         0.0848 
     91 H91        27.4581  -47.3312  -56.8611 H         1 UNK         0.3144 
     92 H92        27.1447  -49.1113  -59.9548 H         1 UNK         0.0727 
     93 H93        29.1519  -47.1723  -58.6798 H         1 UNK         0.0790 
     94 H94        28.4175  -47.0123  -60.2670 H         1 UNK         0.0790 
     95 H95        29.5026  -48.3522  -59.9365 H         1 UNK         0.0790 
     96 H96        28.3928  -49.1794  -57.2297 H         1 UNK         0.3215 
     97 H97        27.3833  -52.5823  -56.8314 H         1 UNK         0.0863 
     98 H98        29.7613  -52.8291  -56.1678 H         1 UNK         0.0808 
     99 H99        30.1787  -51.3348  -57.0040 H         1 UNK         0.0808 
    100 H100       29.6201  -52.7295  -57.9153 H         1 UNK         0.0808 
    101 H101       28.7009  -50.8205  -55.0400 H         1 UNK         0.3118 
    102 H102       25.7125  -49.6251  -53.4398 H         1 UNK         0.0546 
    103 H103       27.8681  -51.6595  -52.6549 H         1 UNK         0.0828 
    104 H104       26.1310  -51.9344  -52.6140 H         1 UNK         0.0828 
    105 H105       26.8526  -50.7459  -51.5412 H         1 UNK         0.0828 
    106 H106       28.7032  -49.4137  -53.5908 H         1 UNK         0.3005 
    107 H107       28.5161  -45.9717  -53.9744 H         1 UNK         0.1257 
    108 H108       28.2739  -45.7885  -51.5424 H         1 UNK         0.0775 
    109 H109       29.2368  -47.2174  -51.2820 H         1 UNK         0.0775 
    110 H110       29.0785  -43.6962  -52.6833 H         1 UNK         0.0840 
    111 H111       30.5108  -42.9533  -52.0211 H         1 UNK         0.0840 
    112 H112       30.7747  -47.5961  -53.4704 H         1 UNK         0.2987 
    113 H113       31.0333  -49.0437  -56.7127 H         1 UNK         0.0785 
    114 H114       31.8436  -46.7288  -57.0873 H         1 UNK         0.0798 
    115 H115       33.1936  -47.7981  -56.7399 H         1 UNK         0.0798 
    116 H116       32.5853  -46.7041  -55.4967 H         1 UNK         0.0798 
    117 H117       32.9865  -49.2727  -54.8438 H         1 UNK         0.3079 
    118 H118       31.7236  -51.7641  -52.6665 H         1 UNK         0.0794 
    119 H119       33.4440  -53.1463  -53.7922 H         1 UNK         0.0786 
    120 H120       33.4995  -52.0211  -55.1481 H         1 UNK         0.0786 
    121 H121       32.0387  -52.9404  -54.8242 H         1 UNK         0.0786 
    122 H122       33.3780  -50.7523  -51.6842 H         1 UNK         0.3032 
    123 H123       35.1303  -49.6901  -51.1121 H         1 UNK         0.1094 
    124 H124       37.3021  -49.9055  -53.2701 H         1 UNK         0.0794 
    125 H125       37.5747  -49.8091  -51.5296 H         1 UNK         0.0794 
    126 H126       36.7773  -51.2131  -52.2194 H         1 UNK         0.0794 
    127 H127       36.5465  -47.6622  -52.5494 H         1 UNK         0.3016 
@<TRIPOS>BOND
     1    1    2 1    
     2    1   67 1    
     3    1   68 1    
     4    1   69 1    
     5    2    3 2    
     6    2    4 am   BACKBONE|DICT|INTERRES
     7    4    5 1    
     8    4   70 1    
     9    5    6 1    
    10    5   65 1    
    11    5   71 1    
    12    6    7 1    
    13    6   72 1    
    14    6   73 1    
    15    7    8 1    
    16    8    9 1    
    17    8   74 1    
    18    8   75 1    
    19    9   10 ar   
    20    9   14 ar   
    21   10   11 ar   
    22   10   76 1    
    23   11   12 ar   
    24   11   48 1    
    25   12   13 ar   
    26   12   77 1    
    27   13   14 ar   
    28   13   15 1    
    29   14   78 1    
    30   15   16 1    
    31   15   79 1    
    32   15   80 1    
    33   16   17 1    
    34   17   18 1    
    35   17   81 1    
    36   17   82 1    
    37   18   19 1    
    38   18   22 1    
    39   18   83 1    
    40   19   20 am   BACKBONE|DICT|INTERRES
    41   19   21 2    
    42   20   84 1    
    43   20   85 1    
    44   22   23 am   BACKBONE|DICT|INTERRES
    45   22   86 1    
    46   23   24 2    
    47   23   25 1    
    48   25   26 1    
    49   25   27 1    
    50   25   87 1    
    51   26   88 1    
    52   26   89 1    
    53   26   90 1    
    54   27   28 am   BACKBONE|DICT|INTERRES
    55   27   91 1    
    56   28   29 2    
    57   28   30 1    
    58   30   31 1    
    59   30   32 1    
    60   30   92 1    
    61   31   93 1    
    62   31   94 1    
    63   31   95 1    
    64   32   33 am   BACKBONE|DICT|INTERRES
    65   32   96 1    
    66   33   34 2    
    67   33   35 1    
    68   35   36 1    
    69   35   37 1    
    70   35   97 1    
    71   36   98 1    
    72   36   99 1    
    73   36  100 1    
    74   37   38 am   BACKBONE|DICT|INTERRES
    75   37  101 1    
    76   38   39 2    
    77   38   40 1    
    78   40   41 1    
    79   40   42 1    
    80   40  102 1    
    81   41  103 1    
    82   41  104 1    
    83   41  105 1    
    84   42   43 am   BACKBONE|DICT|INTERRES
    85   42  106 1    
    86   43   44 2    
    87   43   45 1    
    88   45   46 1    
    89   45   49 1    
    90   45  107 1    
    91   46   47 1    
    92   46  108 1    
    93   46  109 1    
    94   47   48 1    
    95   48  110 1    
    96   48  111 1    
    97   49   50 am   BACKBONE|DICT|INTERRES
    98   49  112 1    
    99   50   51 2    
   100   50   52 1    
   101   52   53 1    
   102   52   54 1    
   103   52  113 1    
   104   53  114 1    
   105   53  115 1    
   106   53  116 1    
   107   54   55 am   BACKBONE|DICT|INTERRES
   108   54  117 1    
   109   55   56 2    
   110   55   57 1    
   111   57   58 1    
   112   57   59 1    
   113   57  118 1    
   114   58  119 1    
   115   58  120 1    
   116   58  121 1    
   117   59   60 am   BACKBONE|DICT|INTERRES
   118   59  122 1    
   119   60   61 2    
   120   60   62 1    
   121   62   63 1    
   122   62   64 1    
   123   62  123 1    
   124   63  124 1    
   125   63  125 1    
   126   63  126 1    
   127   64   65 am   BACKBONE|DICT|INTERRES
   128   64  127 1    
   129   65   66 2    
@<TRIPOS>SUBSTRUCTURE
     1 UNK         1 GROUP             0       ****    0 ROOT    
