@<TRIPOS>MOLECULE
3R134
127   129    1
SMALL
USER_CHARGES


@<TRIPOS>ATOM
      1 CA         37.0876  -44.2660  -51.2299 C.3       0 UNK        -0.1968 
      2 C          36.5222  -45.3935  -52.0805 C.2       0 UNK         0.4852 
      3 O          37.2149  -46.3827  -52.3280 O.2       0 UNK        -0.5359 
      4 N          35.2645  -45.2625  -52.5229 N.am      1 UNK        -0.4300 
      5 CA         34.5510  -46.2335  -53.3622 C.3       1 UNK         0.0863 
      6 C6         33.4354  -45.5700  -54.2064 C.3       11 UNK        -0.0953 
      7 S7         34.0499  -44.2332  -55.2826 S.3       11 UNK        -0.2369 
      8 C8         33.4091  -42.7562  -54.4313 C.3       11 UNK         0.0226 
      9 C9         31.9063  -42.6031  -54.6159 C.ar      11 UNK        -0.0699 
     10 C10        31.0198  -42.9881  -53.6054 C.ar      11 UNK        -0.0804 
     11 C11        29.6410  -42.8486  -53.7831 C.ar      11 UNK        -0.0871 
     12 C12        29.1557  -42.2797  -54.9645 C.ar      11 UNK        -0.1008 
     13 C13        30.0292  -41.8887  -55.9898 C.ar      11 UNK        -0.0735 
     14 C14        31.4036  -42.0613  -55.8019 C.ar      11 UNK        -0.0945 
     15 C15        29.5614  -41.2569  -57.3052 C.3       11 UNK         0.0169 
     16 S16        27.7602  -40.9997  -57.4795 S.3       11 UNK        -0.2669 
     17 C17        27.2099  -42.5333  -58.3114 C.3       11 UNK        -0.0850 
     18 CA         26.9075  -43.7371  -57.3655 C.3       10 UNK         0.0855 
     19 C          25.6470  -43.5979  -56.4548 C.2       10 UNK         0.5543 
     20 N          25.1873  -42.3887  -56.1651 N.am      10 UNK        -0.7343 
     21 O          25.1097  -44.5852  -55.9563 O.2       10 UNK        -0.5027 
     22 N          26.9250  -45.0218  -58.0772 N.am      10 UNK        -0.4495 
     23 C          26.1065  -45.3720  -59.0804 C.2       10 UNK         0.4903 
     24 O          25.3178  -44.6059  -59.6345 O.2       10 UNK        -0.4860 
     25 CA         26.1601  -46.8398  -59.5291 C.3       9 UNK         0.0227 
     26 CB         27.3415  -47.0728  -60.4822 C.3       9 UNK        -0.1964 
     27 N          26.2385  -47.7477  -58.3814 N.am      9 UNK        -0.4231 
     28 C          25.2066  -47.9983  -57.5597 C.2       9 UNK         0.5014 
     29 O          24.0635  -47.5857  -57.7686 O.2       9 UNK        -0.5270 
     30 CA         25.4849  -48.8207  -56.2843 C.3       8 UNK         0.0284 
     31 CB         24.2489  -49.6047  -55.7933 C.3       8 UNK        -0.1977 
     32 N          26.6564  -49.6967  -56.3704 N.am      8 UNK        -0.4342 
     33 C          26.8560  -50.7245  -57.2073 C.2       8 UNK         0.5039 
     34 O          26.0323  -51.1068  -58.0411 O.2       8 UNK        -0.5547 
     35 CA         28.2283  -51.4182  -57.0975 C.3       7 UNK         0.0281 
     36 CB         28.4705  -52.4593  -58.2106 C.3       7 UNK        -0.1963 
     37 N          29.3404  -50.4612  -57.0377 N.am      7 UNK        -0.4444 
     38 C          29.6464  -49.5100  -57.9319 C.2       7 UNK         0.5104 
     39 O          29.0173  -49.3116  -58.9705 O.2       7 UNK        -0.5100 
     40 CA         30.8412  -48.6095  -57.5676 C.3       6 UNK         0.0396 
     41 CB         31.1698  -47.5572  -58.6481 C.3       6 UNK        -0.1801 
     42 N          30.6622  -47.9746  -56.2584 N.am      6 UNK        -0.4747 
     43 C          29.6840  -47.1332  -55.8836 C.2       6 UNK         0.5012 
     44 O          28.7875  -46.7348  -56.6325 O.2       6 UNK        -0.5003 
     45 CA         29.7160  -46.7110  -54.3964 C.3       5 UNK         0.0782 
     46 C46        28.4908  -45.8539  -53.9703 C.3       11 UNK        -0.0868 
     47 S47        28.7667  -45.0855  -52.3360 S.3       11 UNK        -0.2515 
     48 C48        28.6677  -43.2979  -52.6985 C.3       11 UNK         0.0199 
     49 N          29.9503  -47.8721  -53.5163 N.am      5 UNK        -0.4607 
     50 C          29.1395  -48.9372  -53.4151 C.2       4 UNK         0.5031 
     51 O          28.1085  -49.0687  -54.0756 O.2       4 UNK        -0.5119 
     52 CA         29.5604  -50.0582  -52.4443 C.3       4 UNK         0.0263 
     53 CB         28.5988  -51.2651  -52.4896 C.3       4 UNK        -0.1967 
     54 N          30.9392  -50.5247  -52.6276 N.am      4 UNK        -0.4237 
     55 C          31.5395  -50.9251  -53.7578 C.2       3 UNK         0.4908 
     56 O          31.0095  -50.8742  -54.8680 O.2       3 UNK        -0.5102 
     57 CA         32.9816  -51.4632  -53.6237 C.3       3 UNK         0.0241 
     58 CB         33.6368  -51.7346  -54.9918 C.3       3 UNK        -0.1971 
     59 N          33.8467  -50.5630  -52.8566 N.am      3 UNK        -0.4139 
     60 C          33.8195  -50.3894  -51.5281 C.2       2 UNK         0.5016 
     61 O          33.1044  -51.0474  -50.7712 O.2       2 UNK        -0.5319 
     62 CA         34.6756  -49.2495  -50.9516 C.3       2 UNK         0.0286 
     63 CB         36.0179  -49.7922  -50.4365 C.3       2 UNK        -0.1963 
     64 N          34.9292  -48.1461  -51.8858 N.am      2 UNK        -0.4790 
     65 C          34.0055  -47.3893  -52.4966 C.2       1 UNK         0.5024 
     66 O          32.7885  -47.5658  -52.3862 O.2       1 UNK        -0.4888 
     67 H67        37.3589  -44.6402  -50.2430 H         1 UNK         0.0892 
     68 H68        37.9829  -43.8575  -51.6977 H         1 UNK         0.0892 
     69 H69        36.3724  -43.4539  -51.1006 H         1 UNK         0.0892 
     70 H70        34.7341  -44.4459  -52.2589 H         1 UNK         0.3107 
     71 H71        35.2642  -46.6735  -54.0632 H         1 UNK         0.0773 
     72 H72        32.9657  -46.3116  -54.8548 H         1 UNK         0.0680 
     73 H73        32.6490  -45.1881  -53.5570 H         1 UNK         0.0680 
     74 H74        33.6677  -42.7973  -53.3725 H         1 UNK         0.0650 
     75 H75        33.9142  -41.8761  -54.8320 H         1 UNK         0.0650 
     76 H76        31.3970  -43.4069  -52.6824 H         1 UNK         0.1397 
     77 H77        28.0897  -42.1474  -55.0724 H         1 UNK         0.1363 
     78 H78        32.0918  -41.7635  -56.5818 H         1 UNK         0.1355 
     79 H79        29.9303  -41.8516  -58.1438 H         1 UNK         0.0707 
     80 H80        30.0385  -40.2783  -57.3955 H         1 UNK         0.0707 
     81 H81        27.9741  -42.8167  -59.0370 H         1 UNK         0.1034 
     82 H82        26.3267  -42.2920  -58.9055 H         1 UNK         0.1034 
     83 H83        27.7455  -43.8257  -56.6784 H         1 UNK         0.0482 
     84 H84        25.6462  -41.5703  -56.5391 H         1 UNK         0.3460 
     85 H85        24.3851  -42.2926  -55.5628 H         1 UNK         0.3460 
     86 H86        27.5205  -45.7335  -57.6606 H         1 UNK         0.2989 
     87 H87        25.2419  -47.0592  -60.0783 H         1 UNK         0.0559 
     88 H88        27.3643  -48.1018  -60.8414 H         1 UNK         0.0848 
     89 H89        27.2702  -46.4253  -61.3571 H         1 UNK         0.0848 
     90 H90        28.2969  -46.8648  -60.0006 H         1 UNK         0.0848 
     91 H91        27.1476  -48.1373  -58.1622 H         1 UNK         0.3144 
     92 H92        25.7302  -48.0862  -55.5154 H         1 UNK         0.0727 
     93 H93        24.4672  -50.1553  -54.8781 H         1 UNK         0.0790 
     94 H94        23.9000  -50.3179  -56.5406 H         1 UNK         0.0790 
     95 H95        23.4191  -48.9318  -55.5735 H         1 UNK         0.0790 
     96 H96        27.3813  -49.4877  -55.6827 H         1 UNK         0.3215 
     97 H97        28.2284  -51.9470  -56.1430 H         1 UNK         0.0863 
     98 H98        29.4343  -52.9534  -58.0882 H         1 UNK         0.0808 
     99 H99        28.4494  -52.0039  -59.2014 H         1 UNK         0.0808 
    100 H100       27.7042  -53.2353  -58.1930 H         1 UNK         0.0808 
    101 H101       29.9334  -50.5374  -56.2088 H         1 UNK         0.3118 
    102 H102       31.7060  -49.2689  -57.4771 H         1 UNK         0.0546 
    103 H103       30.3552  -46.8476  -58.7904 H         1 UNK         0.0828 
    104 H104       31.3572  -48.0331  -59.6112 H         1 UNK         0.0828 
    105 H105       32.0630  -46.9898  -58.3875 H         1 UNK         0.0828 
    106 H106       31.2924  -48.2985  -55.5379 H         1 UNK         0.3005 
    107 H107       30.5925  -46.0701  -54.3083 H         1 UNK         0.1257 
    108 H108       28.2917  -45.0690  -54.6998 H         1 UNK         0.0775 
    109 H109       27.5820  -46.4561  -53.9310 H         1 UNK         0.0775 
    110 H110       27.6396  -43.0572  -52.9743 H         1 UNK         0.0840 
    111 H111       28.8748  -42.7413  -51.7836 H         1 UNK         0.0840 
    112 H112       30.8010  -47.8459  -52.9624 H         1 UNK         0.2987 
    113 H113       29.5080  -49.6282  -51.4430 H         1 UNK         0.0785 
    114 H114       28.8747  -52.0202  -51.7537 H         1 UNK         0.0798 
    115 H115       28.5951  -51.7401  -53.4715 H         1 UNK         0.0798 
    116 H116       27.5745  -50.9606  -52.2703 H         1 UNK         0.0798 
    117 H117       31.4937  -50.6016  -51.7792 H         1 UNK         0.3079 
    118 H118       32.9154  -52.4148  -53.0919 H         1 UNK         0.0794 
    119 H119       33.0527  -52.4514  -55.5709 H         1 UNK         0.0786 
    120 H120       34.6363  -52.1545  -54.8773 H         1 UNK         0.0786 
    121 H121       33.7198  -50.8249  -55.5878 H         1 UNK         0.0786 
    122 H122       34.4509  -49.9559  -53.3906 H         1 UNK         0.3032 
    123 H123       34.1239  -48.8364  -50.1044 H         1 UNK         0.1094 
    124 H124       35.8643  -50.5990  -49.7182 H         1 UNK         0.0794 
    125 H125       36.6308  -50.1887  -51.2471 H         1 UNK         0.0794 
    126 H126       36.5922  -49.0158  -49.9304 H         1 UNK         0.0794 
    127 H127       35.8991  -47.8705  -52.0149 H         1 UNK         0.3016 
@<TRIPOS>BOND
     1    1    2 1    
     2    1   67 1    
     3    1   68 1    
     4    1   69 1    
     5    2    3 2    
     6    2    4 am   BACKBONE|DICT|INTERRES
     7    4    5 1    
     8    4   70 1    
     9    5    6 1    
    10    5   65 1    
    11    5   71 1    
    12    6    7 1    
    13    6   72 1    
    14    6   73 1    
    15    7    8 1    
    16    8    9 1    
    17    8   74 1    
    18    8   75 1    
    19    9   10 ar   
    20    9   14 ar   
    21   10   11 ar   
    22   10   76 1    
    23   11   12 ar   
    24   11   48 1    
    25   12   13 ar   
    26   12   77 1    
    27   13   14 ar   
    28   13   15 1    
    29   14   78 1    
    30   15   16 1    
    31   15   79 1    
    32   15   80 1    
    33   16   17 1    
    34   17   18 1    
    35   17   81 1    
    36   17   82 1    
    37   18   19 1    
    38   18   22 1    
    39   18   83 1    
    40   19   20 am   BACKBONE|DICT|INTERRES
    41   19   21 2    
    42   20   84 1    
    43   20   85 1    
    44   22   23 am   BACKBONE|DICT|INTERRES
    45   22   86 1    
    46   23   24 2    
    47   23   25 1    
    48   25   26 1    
    49   25   27 1    
    50   25   87 1    
    51   26   88 1    
    52   26   89 1    
    53   26   90 1    
    54   27   28 am   BACKBONE|DICT|INTERRES
    55   27   91 1    
    56   28   29 2    
    57   28   30 1    
    58   30   31 1    
    59   30   32 1    
    60   30   92 1    
    61   31   93 1    
    62   31   94 1    
    63   31   95 1    
    64   32   33 am   BACKBONE|DICT|INTERRES
    65   32   96 1    
    66   33   34 2    
    67   33   35 1    
    68   35   36 1    
    69   35   37 1    
    70   35   97 1    
    71   36   98 1    
    72   36   99 1    
    73   36  100 1    
    74   37   38 am   BACKBONE|DICT|INTERRES
    75   37  101 1    
    76   38   39 2    
    77   38   40 1    
    78   40   41 1    
    79   40   42 1    
    80   40  102 1    
    81   41  103 1    
    82   41  104 1    
    83   41  105 1    
    84   42   43 am   BACKBONE|DICT|INTERRES
    85   42  106 1    
    86   43   44 2    
    87   43   45 1    
    88   45   46 1    
    89   45   49 1    
    90   45  107 1    
    91   46   47 1    
    92   46  108 1    
    93   46  109 1    
    94   47   48 1    
    95   48  110 1    
    96   48  111 1    
    97   49   50 am   BACKBONE|DICT|INTERRES
    98   49  112 1    
    99   50   51 2    
   100   50   52 1    
   101   52   53 1    
   102   52   54 1    
   103   52  113 1    
   104   53  114 1    
   105   53  115 1    
   106   53  116 1    
   107   54   55 am   BACKBONE|DICT|INTERRES
   108   54  117 1    
   109   55   56 2    
   110   55   57 1    
   111   57   58 1    
   112   57   59 1    
   113   57  118 1    
   114   58  119 1    
   115   58  120 1    
   116   58  121 1    
   117   59   60 am   BACKBONE|DICT|INTERRES
   118   59  122 1    
   119   60   61 2    
   120   60   62 1    
   121   62   63 1    
   122   62   64 1    
   123   62  123 1    
   124   63  124 1    
   125   63  125 1    
   126   63  126 1    
   127   64   65 am   BACKBONE|DICT|INTERRES
   128   64  127 1    
   129   65   66 2    
@<TRIPOS>SUBSTRUCTURE
     1 UNK         1 GROUP             0       ****    0 ROOT    
