@<TRIPOS>MOLECULE
3R134
127   129    1
SMALL
USER_CHARGES


@<TRIPOS>ATOM
      1 CA         38.4437  -44.4897  -53.7619 C.3       0 UNK        -0.1968 
      2 C          37.0499  -45.0410  -53.4991 C.2       0 UNK         0.4852 
      3 O          36.4440  -44.6965  -52.4837 O.2       0 UNK        -0.5359 
      4 N          36.5498  -45.8945  -54.4060 N.am      1 UNK        -0.4300 
      5 CA         35.2251  -46.5354  -54.3767 C.3       1 UNK         0.0863 
      6 C6         34.0446  -45.5343  -54.5092 C.3       11 UNK        -0.0953 
      7 S7         34.0938  -44.5238  -56.0255 S.3       11 UNK        -0.2369 
      8 C8         33.2525  -43.0089  -55.4586 C.3       11 UNK         0.0226 
      9 C9         31.7983  -43.2700  -55.0852 C.ar      11 UNK        -0.0699 
     10 C10        31.4577  -43.5912  -53.7684 C.ar      11 UNK        -0.0804 
     11 C11        30.1342  -43.8707  -53.4208 C.ar      11 UNK        -0.0871 
     12 C12        29.1360  -43.7966  -54.3971 C.ar      11 UNK        -0.1008 
     13 C13        29.4593  -43.4473  -55.7128 C.ar      11 UNK        -0.0735 
     14 C14        30.7924  -43.1924  -56.0526 C.ar      11 UNK        -0.0945 
     15 C15        28.3723  -43.3618  -56.7720 C.3       11 UNK         0.0169 
     16 S16        27.3690  -41.8590  -56.5814 S.3       11 UNK        -0.2669 
     17 C17        26.4829  -41.8108  -58.1773 C.3       11 UNK        -0.0850 
     18 CA         25.1299  -42.5688  -58.1416 C.3       10 UNK         0.0855 
     19 C          24.2275  -42.1694  -59.3461 C.2       10 UNK         0.5543 
     20 N          23.8474  -43.0846  -60.2302 N.am      10 UNK        -0.7343 
     21 O          23.8553  -41.0055  -59.4737 O.2       10 UNK        -0.5027 
     22 N          25.3318  -44.0216  -58.0182 N.am      10 UNK        -0.4495 
     23 C          24.5053  -44.8650  -57.3939 C.2       10 UNK         0.4903 
     24 O          23.5073  -44.5009  -56.7710 O.2       10 UNK        -0.4860 
     25 CA         24.8187  -46.3727  -57.4656 C.3       9 UNK         0.0227 
     26 CB         23.9354  -47.0622  -58.5232 C.3       9 UNK        -0.1964 
     27 N          26.2292  -46.7534  -57.6436 N.am      9 UNK        -0.4231 
     28 C          27.0480  -46.5459  -58.6865 C.2       9 UNK         0.5014 
     29 O          26.7709  -45.8221  -59.6435 O.2       9 UNK        -0.5270 
     30 CA         28.4035  -47.2770  -58.6674 C.3       8 UNK         0.0284 
     31 CB         29.4756  -46.4575  -57.9333 C.3       8 UNK        -0.1977 
     32 N          28.3263  -48.6099  -58.0677 N.am      8 UNK        -0.4342 
     33 C          27.6767  -49.6568  -58.5963 C.2       8 UNK         0.5039 
     34 O          27.0890  -49.6298  -59.6782 O.2       8 UNK        -0.5547 
     35 CA         27.6775  -50.9516  -57.7709 C.3       7 UNK         0.0281 
     36 CB         28.9938  -51.7239  -57.9622 C.3       7 UNK        -0.1963 
     37 N          27.4700  -50.6726  -56.3493 N.am      7 UNK        -0.4444 
     38 C          26.2689  -50.4901  -55.7839 C.2       7 UNK         0.5104 
     39 O          25.2020  -50.6059  -56.3871 O.2       7 UNK        -0.5100 
     40 CA         26.2473  -50.1133  -54.2909 C.3       6 UNK         0.0396 
     41 CB         26.1124  -51.3740  -53.4225 C.3       6 UNK        -0.1801 
     42 N          27.4230  -49.3522  -53.8584 N.am      6 UNK        -0.4747 
     43 C          27.6981  -48.0959  -54.2387 C.2       6 UNK         0.5012 
     44 O          26.9900  -47.4425  -55.0035 O.2       6 UNK        -0.5003 
     45 CA         29.0080  -47.4800  -53.7080 C.3       5 UNK         0.0782 
     46 C46        28.7579  -46.8535  -52.3151 C.3       11 UNK        -0.0868 
     47 S47        30.2122  -45.9865  -51.6393 S.3       11 UNK        -0.2515 
     48 C48        29.8006  -44.2455  -51.9851 C.3       11 UNK         0.0199 
     49 N          30.1402  -48.4189  -53.7108 N.am      5 UNK        -0.4607 
     50 C          30.5722  -49.1186  -54.7707 C.2       4 UNK         0.5031 
     51 O          30.0013  -49.1172  -55.8610 O.2       4 UNK        -0.5119 
     52 CA         31.8471  -49.9602  -54.6172 C.3       4 UNK         0.0263 
     53 CB         32.9420  -49.4272  -55.5549 C.3       4 UNK        -0.1967 
     54 N          32.3592  -49.9863  -53.2438 N.am      4 UNK        -0.4237 
     55 C          32.1163  -50.9672  -52.3619 C.2       3 UNK         0.4908 
     56 O          31.3593  -51.9111  -52.5953 O.2       3 UNK        -0.5102 
     57 CA         32.8184  -50.8837  -50.9874 C.3       3 UNK         0.0241 
     58 CB         33.1232  -52.2763  -50.3943 C.3       3 UNK        -0.1971 
     59 N          34.0199  -50.0365  -50.9762 N.am      3 UNK        -0.4139 
     60 C          35.1509  -50.2034  -51.6801 C.2       2 UNK         0.5016 
     61 O          35.3803  -51.1617  -52.4205 O.2       2 UNK        -0.5319 
     62 CA         36.1767  -49.0574  -51.5823 C.3       2 UNK         0.0286 
     63 CB         37.6108  -49.5969  -51.4396 C.3       2 UNK        -0.1963 
     64 N          36.1205  -48.1504  -52.7359 N.am      2 UNK        -0.4790 
     65 C          35.0394  -47.4767  -53.1614 C.2       1 UNK         0.5024 
     66 O          33.9285  -47.5829  -52.6369 O.2       1 UNK        -0.4888 
     67 H67        39.1141  -44.7602  -52.9466 H         1 UNK         0.0892 
     68 H68        38.4095  -43.4026  -53.8288 H         1 UNK         0.0892 
     69 H69        38.8673  -44.8725  -54.6904 H         1 UNK         0.0892 
     70 H70        37.1110  -46.1218  -55.2154 H         1 UNK         0.3107 
     71 H71        35.1977  -47.1867  -55.2511 H         1 UNK         0.0773 
     72 H72        34.0302  -44.8763  -53.6403 H         1 UNK         0.0680 
     73 H73        33.0855  -46.0560  -54.5125 H         1 UNK         0.0680 
     74 H74        33.7948  -42.5887  -54.6101 H         1 UNK         0.0650 
     75 H75        33.3023  -42.2614  -56.2515 H         1 UNK         0.0650 
     76 H76        32.2261  -43.6434  -53.0098 H         1 UNK         0.1397 
     77 H77        28.1068  -44.0036  -54.1363 H         1 UNK         0.1363 
     78 H78        31.0503  -42.9370  -57.0714 H         1 UNK         0.1355 
     79 H79        27.7282  -44.2378  -56.6971 H         1 UNK         0.0707 
     80 H80        28.8127  -43.3761  -57.7696 H         1 UNK         0.0707 
     81 H81        27.1209  -42.1904  -58.9774 H         1 UNK         0.1034 
     82 H82        26.3225  -40.7552  -58.4060 H         1 UNK         0.1034 
     83 H83        24.5921  -42.2235  -57.2564 H         1 UNK         0.0482 
     84 H84        24.1541  -44.0397  -60.1384 H         1 UNK         0.3460 
     85 H85        23.2589  -42.8130  -61.0021 H         1 UNK         0.3460 
     86 H86        26.0661  -44.4320  -58.5874 H         1 UNK         0.2989 
     87 H87        24.5390  -46.7822  -56.4935 H         1 UNK         0.0559 
     88 H88        24.0676  -48.1444  -58.5017 H         1 UNK         0.0848 
     89 H89        24.1634  -46.7176  -59.5322 H         1 UNK         0.0848 
     90 H90        22.8785  -46.8617  -58.3423 H         1 UNK         0.0848 
     91 H91        26.6139  -47.2566  -56.8471 H         1 UNK         0.3144 
     92 H92        28.7238  -47.4002  -59.7041 H         1 UNK         0.0727 
     93 H93        30.4385  -46.9690  -57.9392 H         1 UNK         0.0790 
     94 H94        29.2054  -46.2758  -56.8928 H         1 UNK         0.0790 
     95 H95        29.6250  -45.4921  -58.4161 H         1 UNK         0.0790 
     96 H96        28.8447  -48.7521  -57.2017 H         1 UNK         0.3215 
     97 H97        26.8626  -51.5821  -58.1341 H         1 UNK         0.0863 
     98 H98        28.9839  -52.6651  -57.4123 H         1 UNK         0.0808 
     99 H99        29.8588  -51.1500  -57.6280 H         1 UNK         0.0808 
    100 H100       29.1517  -51.9656  -59.0141 H         1 UNK         0.0808 
    101 H101       28.2972  -50.4929  -55.7953 H         1 UNK         0.3118 
    102 H102       25.3655  -49.4908  -54.1237 H         1 UNK         0.0546 
    103 H103       25.2296  -51.9494  -53.7052 H         1 UNK         0.0828 
    104 H104       26.0065  -51.1208  -52.3675 H         1 UNK         0.0828 
    105 H105       26.9763  -52.0318  -53.5263 H         1 UNK         0.0828 
    106 H106       28.0705  -49.8191  -53.2391 H         1 UNK         0.3005 
    107 H107       29.2747  -46.6766  -54.3975 H         1 UNK         0.1257 
    108 H108       28.4747  -47.6260  -51.5974 H         1 UNK         0.0775 
    109 H109       27.9159  -46.1594  -52.3516 H         1 UNK         0.0775 
    110 H110       28.7509  -44.0498  -51.7611 H         1 UNK         0.0840 
    111 H111       30.3730  -43.6116  -51.3061 H         1 UNK         0.0840 
    112 H112       30.6797  -48.4590  -52.8587 H         1 UNK         0.2987 
    113 H113       31.6033  -50.9754  -54.9375 H         1 UNK         0.0785 
    114 H114       33.1211  -48.3649  -55.3964 H         1 UNK         0.0798 
    115 H115       32.6509  -49.5497  -56.5991 H         1 UNK         0.0798 
    116 H116       33.8838  -49.9586  -55.4160 H         1 UNK         0.0798 
    117 H117       32.9600  -49.2145  -52.9651 H         1 UNK         0.3079 
    118 H118       32.1035  -50.3960  -50.3230 H         1 UNK         0.0794 
    119 H119       33.7779  -52.8584  -51.0436 H         1 UNK         0.0786 
    120 H120       32.2083  -52.8535  -50.2555 H         1 UNK         0.0786 
    121 H121       33.6030  -52.1961  -49.4189 H         1 UNK         0.0786 
    122 H122       33.9273  -49.1790  -50.4480 H         1 UNK         0.3032 
    123 H123       35.9539  -48.4693  -50.6892 H         1 UNK         0.1094 
    124 H124       37.9283  -50.1446  -52.3279 H         1 UNK         0.0794 
    125 H125       38.3242  -48.7902  -51.2695 H         1 UNK         0.0794 
    126 H126       37.6877  -50.2794  -50.5920 H         1 UNK         0.0794 
    127 H127       36.9858  -48.0139  -53.2379 H         1 UNK         0.3016 
@<TRIPOS>BOND
     1    1    2 1    
     2    1   67 1    
     3    1   68 1    
     4    1   69 1    
     5    2    3 2    
     6    2    4 am   BACKBONE|DICT|INTERRES
     7    4    5 1    
     8    4   70 1    
     9    5    6 1    
    10    5   65 1    
    11    5   71 1    
    12    6    7 1    
    13    6   72 1    
    14    6   73 1    
    15    7    8 1    
    16    8    9 1    
    17    8   74 1    
    18    8   75 1    
    19    9   10 ar   
    20    9   14 ar   
    21   10   11 ar   
    22   10   76 1    
    23   11   12 ar   
    24   11   48 1    
    25   12   13 ar   
    26   12   77 1    
    27   13   14 ar   
    28   13   15 1    
    29   14   78 1    
    30   15   16 1    
    31   15   79 1    
    32   15   80 1    
    33   16   17 1    
    34   17   18 1    
    35   17   81 1    
    36   17   82 1    
    37   18   19 1    
    38   18   22 1    
    39   18   83 1    
    40   19   20 am   BACKBONE|DICT|INTERRES
    41   19   21 2    
    42   20   84 1    
    43   20   85 1    
    44   22   23 am   BACKBONE|DICT|INTERRES
    45   22   86 1    
    46   23   24 2    
    47   23   25 1    
    48   25   26 1    
    49   25   27 1    
    50   25   87 1    
    51   26   88 1    
    52   26   89 1    
    53   26   90 1    
    54   27   28 am   BACKBONE|DICT|INTERRES
    55   27   91 1    
    56   28   29 2    
    57   28   30 1    
    58   30   31 1    
    59   30   32 1    
    60   30   92 1    
    61   31   93 1    
    62   31   94 1    
    63   31   95 1    
    64   32   33 am   BACKBONE|DICT|INTERRES
    65   32   96 1    
    66   33   34 2    
    67   33   35 1    
    68   35   36 1    
    69   35   37 1    
    70   35   97 1    
    71   36   98 1    
    72   36   99 1    
    73   36  100 1    
    74   37   38 am   BACKBONE|DICT|INTERRES
    75   37  101 1    
    76   38   39 2    
    77   38   40 1    
    78   40   41 1    
    79   40   42 1    
    80   40  102 1    
    81   41  103 1    
    82   41  104 1    
    83   41  105 1    
    84   42   43 am   BACKBONE|DICT|INTERRES
    85   42  106 1    
    86   43   44 2    
    87   43   45 1    
    88   45   46 1    
    89   45   49 1    
    90   45  107 1    
    91   46   47 1    
    92   46  108 1    
    93   46  109 1    
    94   47   48 1    
    95   48  110 1    
    96   48  111 1    
    97   49   50 am   BACKBONE|DICT|INTERRES
    98   49  112 1    
    99   50   51 2    
   100   50   52 1    
   101   52   53 1    
   102   52   54 1    
   103   52  113 1    
   104   53  114 1    
   105   53  115 1    
   106   53  116 1    
   107   54   55 am   BACKBONE|DICT|INTERRES
   108   54  117 1    
   109   55   56 2    
   110   55   57 1    
   111   57   58 1    
   112   57   59 1    
   113   57  118 1    
   114   58  119 1    
   115   58  120 1    
   116   58  121 1    
   117   59   60 am   BACKBONE|DICT|INTERRES
   118   59  122 1    
   119   60   61 2    
   120   60   62 1    
   121   62   63 1    
   122   62   64 1    
   123   62  123 1    
   124   63  124 1    
   125   63  125 1    
   126   63  126 1    
   127   64   65 am   BACKBONE|DICT|INTERRES
   128   64  127 1    
   129   65   66 2    
@<TRIPOS>SUBSTRUCTURE
     1 UNK         1 GROUP             0       ****    0 ROOT    
