@<TRIPOS>MOLECULE
3R134
127   129    1
SMALL
USER_CHARGES


@<TRIPOS>ATOM
      1 CA         37.8758  -43.8411  -53.9947 C.3       0 UNK        -0.1968 
      2 C          36.7959  -44.6546  -54.6928 C.2       0 UNK         0.4852 
      3 O          37.1143  -45.4933  -55.5367 O.2       0 UNK        -0.5359 
      4 N          35.5248  -44.4054  -54.3509 N.am      1 UNK        -0.4300 
      5 CA         34.3469  -45.1140  -54.8642 C.3       1 UNK         0.0863 
      6 C6         33.0195  -44.3756  -54.5363 C.3       11 UNK        -0.0953 
      7 S7         32.9089  -43.7529  -52.8207 S.3       11 UNK        -0.2369 
      8 C8         31.7421  -42.3657  -53.0131 C.3       11 UNK         0.0226 
      9 C9         30.3249  -42.8710  -53.2316 C.ar      11 UNK        -0.0699 
     10 C10        29.6351  -43.4576  -52.1698 C.ar      11 UNK        -0.0804 
     11 C11        28.3726  -44.0198  -52.3695 C.ar      11 UNK        -0.0871 
     12 C12        27.7710  -43.9197  -53.6266 C.ar      11 UNK        -0.1008 
     13 C13        28.4345  -43.3170  -54.6979 C.ar      11 UNK        -0.0735 
     14 C14        29.7197  -42.7929  -54.4900 C.ar      11 UNK        -0.0945 
     15 C15        27.7191  -43.3061  -56.0504 C.3       11 UNK         0.0169 
     16 S16        28.4553  -42.2571  -57.3468 S.3       11 UNK        -0.2669 
     17 C17        29.8544  -43.2789  -57.9183 C.3       11 UNK        -0.0850 
     18 CA         29.5152  -44.0297  -59.2316 C.3       10 UNK         0.0855 
     19 C          30.8100  -44.3943  -60.0148 C.2       10 UNK         0.5543 
     20 N          31.3988  -43.4270  -60.7109 N.am      10 UNK        -0.7343 
     21 O          31.3030  -45.5226  -59.9719 O.2       10 UNK        -0.5027 
     22 N          28.6487  -45.1931  -58.9738 N.am      10 UNK        -0.4495 
     23 C          28.0360  -45.9000  -59.9319 C.2       10 UNK         0.4903 
     24 O          27.9988  -45.5591  -61.1150 O.2       10 UNK        -0.4860 
     25 CA         27.3680  -47.2215  -59.5247 C.3       9 UNK         0.0227 
     26 CB         28.3166  -48.3972  -59.8139 C.3       9 UNK        -0.1964 
     27 N          26.9713  -47.2753  -58.1158 N.am      9 UNK        -0.4231 
     28 C          25.7382  -47.0257  -57.6568 C.2       9 UNK         0.5014 
     29 O          24.8305  -46.5529  -58.3440 O.2       9 UNK        -0.5270 
     30 CA         25.4789  -47.4282  -56.1886 C.3       8 UNK         0.0284 
     31 CB         23.9892  -47.3692  -55.7916 C.3       8 UNK        -0.1977 
     32 N          26.0579  -48.7437  -55.8705 N.am      8 UNK        -0.4342 
     33 C          25.7959  -49.9219  -56.4611 C.2       8 UNK         0.5039 
     34 O          24.9075  -50.0929  -57.2966 O.2       8 UNK        -0.5547 
     35 CA         26.7012  -51.1143  -56.0950 C.3       7 UNK         0.0281 
     36 CB         27.7427  -51.3493  -57.2010 C.3       7 UNK        -0.1963 
     37 N          27.3969  -50.9566  -54.8157 N.am      7 UNK        -0.4444 
     38 C          26.8164  -51.1148  -53.6183 C.2       7 UNK         0.5104 
     39 O          25.6429  -51.4522  -53.4609 O.2       7 UNK        -0.5100 
     40 CA         27.6896  -50.8135  -52.3889 C.3       6 UNK         0.0396 
     41 CB         28.5821  -52.0154  -52.0401 C.3       6 UNK        -0.1801 
     42 N          28.5172  -49.6189  -52.5741 N.am      6 UNK        -0.4747 
     43 C          28.0344  -48.3716  -52.6812 C.2       6 UNK         0.5012 
     44 O          26.8373  -48.0920  -52.6193 O.2       6 UNK        -0.5003 
     45 CA         29.0566  -47.2576  -52.9589 C.3       5 UNK         0.0782 
     46 C46        29.7760  -46.7905  -51.6670 C.3       11 UNK        -0.0868 
     47 S47        28.7564  -45.9768  -50.3772 S.3       11 UNK        -0.2515 
     48 C48        27.6716  -44.7957  -51.2603 C.3       11 UNK         0.0199 
     49 N          30.0131  -47.6736  -53.9878 N.am      5 UNK        -0.4607 
     50 C          29.7273  -47.7524  -55.2972 C.2       4 UNK         0.5031 
     51 O          28.6695  -47.3637  -55.7891 O.2       4 UNK        -0.5119 
     52 CA         30.7616  -48.3977  -56.2347 C.3       4 UNK         0.0263 
     53 CB         31.4574  -47.3270  -57.0854 C.3       4 UNK        -0.1967 
     54 N          31.7508  -49.2208  -55.5366 N.am      4 UNK        -0.4237 
     55 C          31.4526  -50.3711  -54.9114 C.2       3 UNK         0.4908 
     56 O          30.3292  -50.8771  -54.9299 O.2       3 UNK        -0.5102 
     57 CA         32.5586  -51.0451  -54.0776 C.3       3 UNK         0.0241 
     58 CB         33.2073  -52.1866  -54.8756 C.3       3 UNK        -0.1971 
     59 N          33.6033  -50.1316  -53.5997 N.am      3 UNK        -0.4139 
     60 C          33.4052  -49.0582  -52.8202 C.2       2 UNK         0.5016 
     61 O          32.2972  -48.7188  -52.4034 O.2       2 UNK        -0.5319 
     62 CA         34.6291  -48.1763  -52.4967 C.3       2 UNK         0.0286 
     63 CB         35.9861  -48.8331  -52.8380 C.3       2 UNK        -0.1963 
     64 N          34.5421  -46.8537  -53.1327 N.am      2 UNK        -0.4790 
     65 C          34.3225  -46.5957  -54.4325 C.2       1 UNK         0.5024 
     66 O          34.1374  -47.4681  -55.2831 O.2       1 UNK        -0.4888 
     67 H67        38.4576  -43.2825  -54.7278 H         1 UNK         0.0892 
     68 H68        37.4555  -43.1304  -53.2828 H         1 UNK         0.0892 
     69 H69        38.5529  -44.5026  -53.4539 H         1 UNK         0.0892 
     70 H70        35.3253  -43.7028  -53.6522 H         1 UNK         0.3107 
     71 H71        34.4393  -45.1248  -55.9528 H         1 UNK         0.0773 
     72 H72        32.9223  -43.5230  -55.2099 H         1 UNK         0.0680 
     73 H73        32.1492  -45.0039  -54.7343 H         1 UNK         0.0680 
     74 H74        31.7705  -41.7538  -52.1105 H         1 UNK         0.0650 
     75 H75        32.0632  -41.7200  -53.8318 H         1 UNK         0.0650 
     76 H76        30.1118  -43.5337  -51.2020 H         1 UNK         0.1397 
     77 H77        26.7914  -44.3509  -53.7854 H         1 UNK         0.1363 
     78 H78        30.2669  -42.3355  -55.3005 H         1 UNK         0.1355 
     79 H79        26.6965  -42.9577  -55.8972 H         1 UNK         0.0707 
     80 H80        27.6384  -44.3300  -56.4173 H         1 UNK         0.0707 
     81 H81        30.6930  -42.5945  -58.0628 H         1 UNK         0.1034 
     82 H82        30.1726  -43.9759  -57.1408 H         1 UNK         0.1034 
     83 H83        28.9509  -43.3524  -59.8766 H         1 UNK         0.0482 
     84 H84        31.0095  -42.4948  -60.7520 H         1 UNK         0.3460 
     85 H85        32.2450  -43.6372  -61.2168 H         1 UNK         0.3460 
     86 H86        28.6349  -45.5473  -58.0303 H         1 UNK         0.2989 
     87 H87        26.4845  -47.3473  -60.1544 H         1 UNK         0.0559 
     88 H88        29.2258  -48.3437  -59.2141 H         1 UNK         0.0848 
     89 H89        28.6203  -48.4053  -60.8618 H         1 UNK         0.0848 
     90 H90        27.8342  -49.3537  -59.6127 H         1 UNK         0.0848 
     91 H91        27.6639  -47.5816  -57.4388 H         1 UNK         0.3144 
     92 H92        26.0108  -46.7011  -55.5729 H         1 UNK         0.0727 
     93 H93        23.5905  -46.3624  -55.9216 H         1 UNK         0.0790 
     94 H94        23.8488  -47.6412  -54.7454 H         1 UNK         0.0790 
     95 H95        23.3807  -48.0407  -56.3980 H         1 UNK         0.0790 
     96 H96        26.8243  -48.7183  -55.2117 H         1 UNK         0.3215 
     97 H97        26.0652  -52.0004  -56.0348 H         1 UNK         0.0863 
     98 H98        28.3635  -52.2189  -56.9844 H         1 UNK         0.0808 
     99 H99        28.4017  -50.4902  -57.3224 H         1 UNK         0.0808 
    100 H100       27.2585  -51.5278  -58.1621 H         1 UNK         0.0808 
    101 H101       28.3949  -50.7610  -54.8485 H         1 UNK         0.3118 
    102 H102       27.0231  -50.6311  -51.5432 H         1 UNK         0.0546 
    103 H103       29.2846  -52.2490  -52.8407 H         1 UNK         0.0828 
    104 H104       27.9800  -52.9083  -51.8667 H         1 UNK         0.0828 
    105 H105       29.1569  -51.8329  -51.1320 H         1 UNK         0.0828 
    106 H106       29.5124  -49.7628  -52.6724 H         1 UNK         0.3005 
    107 H107       28.4959  -46.4272  -53.3783 H         1 UNK         0.1257 
    108 H108       30.5763  -46.0977  -51.9320 H         1 UNK         0.0775 
    109 H109       30.2770  -47.6342  -51.1904 H         1 UNK         0.0775 
    110 H110       26.8209  -45.3514  -51.6585 H         1 UNK         0.0840 
    111 H111       27.2619  -44.0876  -50.5390 H         1 UNK         0.0840 
    112 H112       30.9064  -48.0170  -53.6479 H         1 UNK         0.2987 
    113 H113       30.2155  -49.0526  -56.9150 H         1 UNK         0.0785 
    114 H114       31.9674  -46.5852  -56.4742 H         1 UNK         0.0798 
    115 H115       30.7313  -46.7924  -57.6966 H         1 UNK         0.0798 
    116 H116       32.1886  -47.7658  -57.7645 H         1 UNK         0.0798 
    117 H117       32.6881  -48.8366  -55.4562 H         1 UNK         0.3079 
    118 H118       32.0760  -51.4745  -53.1972 H         1 UNK         0.0794 
    119 H119       32.4551  -52.8974  -55.2216 H         1 UNK         0.0786 
    120 H120       33.9192  -52.7437  -54.2662 H         1 UNK         0.0786 
    121 H121       33.7341  -51.8154  -55.7556 H         1 UNK         0.0786 
    122 H122       34.5426  -50.3110  -53.9239 H         1 UNK         0.3032 
    123 H123       34.6012  -48.0118  -51.4182 H         1 UNK         0.1094 
    124 H124       36.8134  -48.2134  -52.4917 H         1 UNK         0.0794 
    125 H125       36.0927  -49.8030  -52.3498 H         1 UNK         0.0794 
    126 H126       36.1191  -48.9789  -53.9108 H         1 UNK         0.0794 
    127 H127       34.6376  -46.0614  -52.5124 H         1 UNK         0.3016 
@<TRIPOS>BOND
     1    1    2 1    
     2    1   67 1    
     3    1   68 1    
     4    1   69 1    
     5    2    3 2    
     6    2    4 am   BACKBONE|DICT|INTERRES
     7    4    5 1    
     8    4   70 1    
     9    5    6 1    
    10    5   65 1    
    11    5   71 1    
    12    6    7 1    
    13    6   72 1    
    14    6   73 1    
    15    7    8 1    
    16    8    9 1    
    17    8   74 1    
    18    8   75 1    
    19    9   10 ar   
    20    9   14 ar   
    21   10   11 ar   
    22   10   76 1    
    23   11   12 ar   
    24   11   48 1    
    25   12   13 ar   
    26   12   77 1    
    27   13   14 ar   
    28   13   15 1    
    29   14   78 1    
    30   15   16 1    
    31   15   79 1    
    32   15   80 1    
    33   16   17 1    
    34   17   18 1    
    35   17   81 1    
    36   17   82 1    
    37   18   19 1    
    38   18   22 1    
    39   18   83 1    
    40   19   20 am   BACKBONE|DICT|INTERRES
    41   19   21 2    
    42   20   84 1    
    43   20   85 1    
    44   22   23 am   BACKBONE|DICT|INTERRES
    45   22   86 1    
    46   23   24 2    
    47   23   25 1    
    48   25   26 1    
    49   25   27 1    
    50   25   87 1    
    51   26   88 1    
    52   26   89 1    
    53   26   90 1    
    54   27   28 am   BACKBONE|DICT|INTERRES
    55   27   91 1    
    56   28   29 2    
    57   28   30 1    
    58   30   31 1    
    59   30   32 1    
    60   30   92 1    
    61   31   93 1    
    62   31   94 1    
    63   31   95 1    
    64   32   33 am   BACKBONE|DICT|INTERRES
    65   32   96 1    
    66   33   34 2    
    67   33   35 1    
    68   35   36 1    
    69   35   37 1    
    70   35   97 1    
    71   36   98 1    
    72   36   99 1    
    73   36  100 1    
    74   37   38 am   BACKBONE|DICT|INTERRES
    75   37  101 1    
    76   38   39 2    
    77   38   40 1    
    78   40   41 1    
    79   40   42 1    
    80   40  102 1    
    81   41  103 1    
    82   41  104 1    
    83   41  105 1    
    84   42   43 am   BACKBONE|DICT|INTERRES
    85   42  106 1    
    86   43   44 2    
    87   43   45 1    
    88   45   46 1    
    89   45   49 1    
    90   45  107 1    
    91   46   47 1    
    92   46  108 1    
    93   46  109 1    
    94   47   48 1    
    95   48  110 1    
    96   48  111 1    
    97   49   50 am   BACKBONE|DICT|INTERRES
    98   49  112 1    
    99   50   51 2    
   100   50   52 1    
   101   52   53 1    
   102   52   54 1    
   103   52  113 1    
   104   53  114 1    
   105   53  115 1    
   106   53  116 1    
   107   54   55 am   BACKBONE|DICT|INTERRES
   108   54  117 1    
   109   55   56 2    
   110   55   57 1    
   111   57   58 1    
   112   57   59 1    
   113   57  118 1    
   114   58  119 1    
   115   58  120 1    
   116   58  121 1    
   117   59   60 am   BACKBONE|DICT|INTERRES
   118   59  122 1    
   119   60   61 2    
   120   60   62 1    
   121   62   63 1    
   122   62   64 1    
   123   62  123 1    
   124   63  124 1    
   125   63  125 1    
   126   63  126 1    
   127   64   65 am   BACKBONE|DICT|INTERRES
   128   64  127 1    
   129   65   66 2    
@<TRIPOS>SUBSTRUCTURE
     1 UNK         1 GROUP             0       ****    0 ROOT    
