@<TRIPOS>MOLECULE
3R134
127   129    1
SMALL
USER_CHARGES


@<TRIPOS>ATOM
      1 CA         33.9685  -45.9024  -48.9856 C.3       0 UNK        -0.1968 
      2 C          33.8670  -46.2683  -50.4580 C.2       0 UNK         0.4852 
      3 O          33.5564  -47.4156  -50.7843 O.2       0 UNK        -0.5359 
      4 N          34.1046  -45.3026  -51.3576 N.am      1 UNK        -0.4300 
      5 CA         34.0681  -45.4973  -52.8129 C.3       1 UNK         0.0863 
      6 C6         34.6506  -44.2858  -53.5804 C.3       11 UNK        -0.0953 
      7 S7         33.6445  -42.7611  -53.4903 S.3       11 UNK        -0.2369 
      8 C8         33.7368  -42.1448  -55.2037 C.3       11 UNK         0.0226 
      9 C9         32.9284  -42.9917  -56.1787 C.ar      11 UNK        -0.0699 
     10 C10        33.5597  -43.9691  -56.9546 C.ar      11 UNK        -0.0804 
     11 C11        32.8246  -44.7440  -57.8532 C.ar      11 UNK        -0.0871 
     12 C12        31.4558  -44.5118  -57.9976 C.ar      11 UNK        -0.1008 
     13 C13        30.8035  -43.5411  -57.2337 C.ar      11 UNK        -0.0735 
     14 C14        31.5520  -42.7819  -56.3216 C.ar      11 UNK        -0.0945 
     15 C15        29.2985  -43.3761  -57.4503 C.3       11 UNK         0.0169 
     16 S16        28.4763  -42.0323  -56.5381 S.3       11 UNK        -0.2669 
     17 C17        28.3297  -42.7484  -54.8620 C.3       11 UNK        -0.0850 
     18 CA         26.9972  -43.4871  -54.5424 C.3       10 UNK         0.0855 
     19 C          25.7178  -42.7013  -54.9649 C.2       10 UNK         0.5543 
     20 N          24.8942  -43.2111  -55.8754 N.am      10 UNK        -0.7343 
     21 O          25.4634  -41.6191  -54.4420 O.2       10 UNK        -0.5027 
     22 N          27.0201  -44.8946  -54.9780 N.am      10 UNK        -0.4495 
     23 C          26.2479  -45.8498  -54.4390 C.2       10 UNK         0.4903 
     24 O          25.5468  -45.6647  -53.4427 O.2       10 UNK        -0.4860 
     25 CA         26.2459  -47.2431  -55.1005 C.3       9 UNK         0.0227 
     26 CB         24.8495  -47.8994  -55.0423 C.3       9 UNK        -0.1964 
     27 N          26.7738  -47.2938  -56.4698 N.am      9 UNK        -0.4231 
     28 C          26.2798  -46.6892  -57.5617 C.2       9 UNK         0.5014 
     29 O          25.3848  -45.8430  -57.5337 O.2       9 UNK        -0.5270 
     30 CA         26.8768  -47.1125  -58.9143 C.3       8 UNK         0.0284 
     31 CB         28.1162  -46.2723  -59.2540 C.3       8 UNK        -0.1977 
     32 N          27.2445  -48.5307  -58.9131 N.am      8 UNK        -0.4342 
     33 C          26.4592  -49.5262  -59.3476 C.2       8 UNK         0.5039 
     34 O          25.3565  -49.3531  -59.8684 O.2       8 UNK        -0.5547 
     35 CA         26.9893  -50.9637  -59.1794 C.3       7 UNK         0.0281 
     36 CB         27.7552  -51.4042  -60.4375 C.3       7 UNK        -0.1963 
     37 N          27.8519  -51.1260  -58.0061 N.am      7 UNK        -0.4444 
     38 C          27.4236  -51.0848  -56.7366 C.2       7 UNK         0.5104 
     39 O          26.2366  -51.0128  -56.4208 O.2       7 UNK        -0.5100 
     40 CA         28.4932  -51.1097  -55.6269 C.3       6 UNK         0.0396 
     41 CB         28.6031  -52.5201  -55.0272 C.3       6 UNK        -0.1801 
     42 N          29.8316  -50.6543  -56.0276 N.am      6 UNK        -0.4747 
     43 C          30.1369  -49.4527  -56.5392 C.2       6 UNK         0.5012 
     44 O          29.2854  -48.6129  -56.8424 O.2       6 UNK        -0.5003 
     45 CA         31.6361  -49.1497  -56.7439 C.3       5 UNK         0.0782 
     46 C46        31.8630  -47.7603  -57.3888 C.3       11 UNK        -0.0868 
     47 S47        33.6227  -47.3974  -57.7132 S.3       11 UNK        -0.2515 
     48 C48        33.4995  -45.8445  -58.6597 C.3       11 UNK         0.0199 
     49 N          32.3395  -49.2736  -55.4655 N.am      5 UNK        -0.4607 
     50 C          32.8546  -50.4036  -54.9692 C.2       4 UNK         0.5031 
     51 O          32.7912  -51.4901  -55.5454 O.2       4 UNK        -0.5119 
     52 CA         33.5051  -50.3131  -53.5787 C.3       4 UNK         0.0263 
     53 CB         34.8413  -49.5551  -53.6411 C.3       4 UNK        -0.1967 
     54 N          32.6185  -49.6801  -52.5996 N.am      4 UNK        -0.4237 
     55 C          31.4656  -50.2121  -52.1651 C.2       3 UNK         0.4908 
     56 O          31.0663  -51.3343  -52.4757 O.2       3 UNK        -0.5102 
     57 CA         30.6049  -49.3460  -51.2337 C.3       3 UNK         0.0241 
     58 CB         31.0226  -49.5323  -49.7658 C.3       3 UNK        -0.1971 
     59 N          30.6757  -47.9300  -51.5970 N.am      3 UNK        -0.4139 
     60 C          29.9711  -47.3783  -52.5958 C.2       2 UNK         0.5016 
     61 O          29.1455  -47.9921  -53.2686 O.2       2 UNK        -0.5319 
     62 CA         30.2272  -45.8914  -52.8994 C.3       2 UNK         0.0286 
     63 CB         29.2954  -45.0132  -52.0487 C.3       2 UNK        -0.1963 
     64 N          31.6116  -45.4793  -52.6617 N.am      2 UNK        -0.4790 
     65 C          32.6802  -45.9356  -53.3323 C.2       1 UNK         0.5024 
     66 O          32.6076  -46.7283  -54.2684 O.2       1 UNK        -0.4888 
     67 H67        34.7297  -46.5132  -48.5013 H         1 UNK         0.0892 
     68 H68        34.2315  -44.8545  -48.8427 H         1 UNK         0.0892 
     69 H69        33.0169  -46.0857  -48.4876 H         1 UNK         0.0892 
     70 H70        34.3407  -44.3709  -51.0456 H         1 UNK         0.3107 
     71 H71        34.7369  -46.3366  -53.0141 H         1 UNK         0.0773 
     72 H72        35.6452  -44.0522  -53.1977 H         1 UNK         0.0680 
     73 H73        34.8078  -44.5676  -54.6199 H         1 UNK         0.0680 
     74 H74        34.7820  -42.0943  -55.5131 H         1 UNK         0.0650 
     75 H75        33.3668  -41.1187  -55.2240 H         1 UNK         0.0650 
     76 H76        34.6229  -44.1377  -56.8548 H         1 UNK         0.1397 
     77 H77        30.8908  -45.1054  -58.7025 H         1 UNK         0.1363 
     78 H78        31.0786  -42.0210  -55.7185 H         1 UNK         0.1355 
     79 H79        28.8023  -44.3140  -57.2043 H         1 UNK         0.0707 
     80 H80        29.1235  -43.2016  -58.5129 H         1 UNK         0.0707 
     81 H81        29.1823  -43.4002  -54.6687 H         1 UNK         0.1034 
     82 H82        28.4449  -41.9193  -54.1617 H         1 UNK         0.1034 
     83 H83        26.9459  -43.5156  -53.4522 H         1 UNK         0.0482 
     84 H84        24.0680  -42.6972  -56.1359 H         1 UNK         0.3460 
     85 H85        25.0984  -44.0979  -56.3208 H         1 UNK         0.3460 
     86 H86        27.5411  -45.1083  -55.8134 H         1 UNK         0.2989 
     87 H87        26.9149  -47.8631  -54.5057 H         1 UNK         0.0559 
     88 H88        24.5166  -48.0277  -54.0117 H         1 UNK         0.0848 
     89 H89        24.8542  -48.8876  -55.5012 H         1 UNK         0.0848 
     90 H90        24.0983  -47.2967  -55.5537 H         1 UNK         0.0848 
     91 H91        27.5915  -47.8882  -56.5897 H         1 UNK         0.3144 
     92 H92        26.1240  -46.9267  -59.6835 H         1 UNK         0.0727 
     93 H93        28.9001  -46.3912  -58.5059 H         1 UNK         0.0790 
     94 H94        27.8609  -45.2139  -59.3114 H         1 UNK         0.0790 
     95 H95        28.5322  -46.5550  -60.2212 H         1 UNK         0.0790 
     96 H96        28.1120  -48.7678  -58.4441 H         1 UNK         0.3215 
     97 H97        26.1247  -51.6204  -59.0586 H         1 UNK         0.0863 
     98 H98        28.0713  -52.4451  -60.3664 H         1 UNK         0.0808 
     99 H99        28.6424  -50.7929  -60.6074 H         1 UNK         0.0808 
    100 H100       27.1266  -51.3188  -61.3252 H         1 UNK         0.0808 
    101 H101       28.8439  -51.2165  -58.1692 H         1 UNK         0.3118 
    102 H102       28.1513  -50.4326  -54.8412 H         1 UNK         0.0546 
    103 H103       28.9804  -53.2397  -55.7548 H         1 UNK         0.0828 
    104 H104       27.6303  -52.8785  -54.6875 H         1 UNK         0.0828 
    105 H105       29.2686  -52.5343  -54.1641 H         1 UNK         0.0828 
    106 H106       30.6039  -51.2700  -55.7998 H         1 UNK         0.3005 
    107 H107       32.0193  -49.9001  -57.4393 H         1 UNK         0.1257 
    108 H108       31.3227  -47.6855  -58.3344 H         1 UNK         0.0775 
    109 H109       31.4639  -46.9805  -56.7375 H         1 UNK         0.0775 
    110 H110       34.5014  -45.5271  -58.9524 H         1 UNK         0.0840 
    111 H111       32.9562  -46.0285  -59.5879 H         1 UNK         0.0840 
    112 H112       32.4303  -48.4085  -54.9357 H         1 UNK         0.2987 
    113 H113       33.7083  -51.3302  -53.2367 H         1 UNK         0.0785 
    114 H114       35.5406  -50.0579  -54.3103 H         1 UNK         0.0798 
    115 H115       35.3131  -49.4989  -52.6599 H         1 UNK         0.0798 
    116 H116       34.7151  -48.5378  -54.0114 H         1 UNK         0.0798 
    117 H117       32.9002  -48.7773  -52.2330 H         1 UNK         0.3079 
    118 H118       29.5698  -49.6816  -51.3315 H         1 UNK         0.0794 
    119 H119       30.3939  -48.9442  -49.0971 H         1 UNK         0.0786 
    120 H120       32.0591  -49.2410  -49.5947 H         1 UNK         0.0786 
    121 H121       30.9262  -50.5766  -49.4656 H         1 UNK         0.0786 
    122 H122       31.3838  -47.3764  -51.1320 H         1 UNK         0.3032 
    123 H123       30.0026  -45.7290  -53.9563 H         1 UNK         0.1094 
    124 H124       29.4933  -45.1302  -50.9825 H         1 UNK         0.0794 
    125 H125       29.4056  -43.9571  -52.2929 H         1 UNK         0.0794 
    126 H126       28.2506  -45.2792  -52.2120 H         1 UNK         0.0794 
    127 H127       31.7721  -44.8237  -51.9107 H         1 UNK         0.3016 
@<TRIPOS>BOND
     1    1    2 1    
     2    1   67 1    
     3    1   68 1    
     4    1   69 1    
     5    2    3 2    
     6    2    4 am   BACKBONE|DICT|INTERRES
     7    4    5 1    
     8    4   70 1    
     9    5    6 1    
    10    5   65 1    
    11    5   71 1    
    12    6    7 1    
    13    6   72 1    
    14    6   73 1    
    15    7    8 1    
    16    8    9 1    
    17    8   74 1    
    18    8   75 1    
    19    9   10 ar   
    20    9   14 ar   
    21   10   11 ar   
    22   10   76 1    
    23   11   12 ar   
    24   11   48 1    
    25   12   13 ar   
    26   12   77 1    
    27   13   14 ar   
    28   13   15 1    
    29   14   78 1    
    30   15   16 1    
    31   15   79 1    
    32   15   80 1    
    33   16   17 1    
    34   17   18 1    
    35   17   81 1    
    36   17   82 1    
    37   18   19 1    
    38   18   22 1    
    39   18   83 1    
    40   19   20 am   BACKBONE|DICT|INTERRES
    41   19   21 2    
    42   20   84 1    
    43   20   85 1    
    44   22   23 am   BACKBONE|DICT|INTERRES
    45   22   86 1    
    46   23   24 2    
    47   23   25 1    
    48   25   26 1    
    49   25   27 1    
    50   25   87 1    
    51   26   88 1    
    52   26   89 1    
    53   26   90 1    
    54   27   28 am   BACKBONE|DICT|INTERRES
    55   27   91 1    
    56   28   29 2    
    57   28   30 1    
    58   30   31 1    
    59   30   32 1    
    60   30   92 1    
    61   31   93 1    
    62   31   94 1    
    63   31   95 1    
    64   32   33 am   BACKBONE|DICT|INTERRES
    65   32   96 1    
    66   33   34 2    
    67   33   35 1    
    68   35   36 1    
    69   35   37 1    
    70   35   97 1    
    71   36   98 1    
    72   36   99 1    
    73   36  100 1    
    74   37   38 am   BACKBONE|DICT|INTERRES
    75   37  101 1    
    76   38   39 2    
    77   38   40 1    
    78   40   41 1    
    79   40   42 1    
    80   40  102 1    
    81   41  103 1    
    82   41  104 1    
    83   41  105 1    
    84   42   43 am   BACKBONE|DICT|INTERRES
    85   42  106 1    
    86   43   44 2    
    87   43   45 1    
    88   45   46 1    
    89   45   49 1    
    90   45  107 1    
    91   46   47 1    
    92   46  108 1    
    93   46  109 1    
    94   47   48 1    
    95   48  110 1    
    96   48  111 1    
    97   49   50 am   BACKBONE|DICT|INTERRES
    98   49  112 1    
    99   50   51 2    
   100   50   52 1    
   101   52   53 1    
   102   52   54 1    
   103   52  113 1    
   104   53  114 1    
   105   53  115 1    
   106   53  116 1    
   107   54   55 am   BACKBONE|DICT|INTERRES
   108   54  117 1    
   109   55   56 2    
   110   55   57 1    
   111   57   58 1    
   112   57   59 1    
   113   57  118 1    
   114   58  119 1    
   115   58  120 1    
   116   58  121 1    
   117   59   60 am   BACKBONE|DICT|INTERRES
   118   59  122 1    
   119   60   61 2    
   120   60   62 1    
   121   62   63 1    
   122   62   64 1    
   123   62  123 1    
   124   63  124 1    
   125   63  125 1    
   126   63  126 1    
   127   64   65 am   BACKBONE|DICT|INTERRES
   128   64  127 1    
   129   65   66 2    
@<TRIPOS>SUBSTRUCTURE
     1 UNK         1 GROUP             0       ****    0 ROOT    
