@<TRIPOS>MOLECULE
3R134
127   129    1
SMALL
USER_CHARGES


@<TRIPOS>ATOM
      1 CA         34.0351  -45.8852  -57.8806 C.3       0 UNK        -0.1968 
      2 C          34.6404  -45.3868  -56.5769 C.2       0 UNK         0.4852 
      3 O          35.8434  -45.1298  -56.5183 O.2       0 UNK        -0.5359 
      4 N          33.8203  -45.2923  -55.5232 N.am      1 UNK        -0.4300 
      5 CA         34.1219  -44.8590  -54.1490 C.3       1 UNK         0.0863 
      6 C6         34.6931  -43.4222  -54.0212 C.3       11 UNK        -0.0953 
      7 S7         33.5877  -42.1443  -54.7098 S.3       11 UNK        -0.2369 
      8 C8         32.7210  -41.5531  -53.2196 C.3       11 UNK         0.0226 
      9 C9         31.5992  -42.4981  -52.8158 C.ar      11 UNK        -0.0699 
     10 C10        31.8249  -43.5131  -51.8815 C.ar      11 UNK        -0.0804 
     11 C11        30.8078  -44.4148  -51.5537 C.ar      11 UNK        -0.0871 
     12 C12        29.5388  -44.2533  -52.1160 C.ar      11 UNK        -0.1008 
     13 C13        29.3057  -43.2532  -53.0649 C.ar      11 UNK        -0.0735 
     14 C14        30.3381  -42.3741  -53.4045 C.ar      11 UNK        -0.0945 
     15 C15        27.9559  -43.1469  -53.7626 C.3       11 UNK         0.0169 
     16 S16        27.4935  -44.6839  -54.6305 S.3       11 UNK        -0.2669 
     17 C17        28.9120  -44.9694  -55.7533 C.3       11 UNK        -0.0850 
     18 CA         28.5688  -44.7377  -57.2460 C.3       10 UNK         0.0855 
     19 C          29.8117  -44.9802  -58.1540 C.2       10 UNK         0.5543 
     20 N          29.7589  -45.8587  -59.1490 N.am      10 UNK        -0.7343 
     21 O          30.8471  -44.3523  -57.9510 O.2       10 UNK        -0.5027 
     22 N          27.3661  -45.4800  -57.6553 N.am      10 UNK        -0.4495 
     23 C          26.5686  -45.1225  -58.6683 C.2       10 UNK         0.4903 
     24 O          26.7351  -44.1012  -59.3378 O.2       10 UNK        -0.4860 
     25 CA         25.3826  -46.0582  -58.9819 C.3       9 UNK         0.0227 
     26 CB         24.8431  -45.8582  -60.4146 C.3       9 UNK        -0.1964 
     27 N          25.6397  -47.4861  -58.7400 N.am      9 UNK        -0.4231 
     28 C          26.6249  -48.2368  -59.2568 C.2       9 UNK         0.5014 
     29 O          27.5713  -47.7883  -59.9062 O.2       9 UNK        -0.5270 
     30 CA         26.5180  -49.7420  -58.9796 C.3       8 UNK         0.0284 
     31 CB         27.6809  -50.5765  -59.5537 C.3       8 UNK        -0.1977 
     32 N          26.3714  -49.9830  -57.5435 N.am      8 UNK        -0.4342 
     33 C          25.6224  -50.9618  -57.0177 C.2       8 UNK         0.5039 
     34 O          24.9783  -51.7658  -57.6930 O.2       8 UNK        -0.5547 
     35 CA         25.5615  -51.0696  -55.4890 C.3       7 UNK         0.0281 
     36 CB         26.6941  -51.9715  -54.9702 C.3       7 UNK        -0.1963 
     37 N          25.6564  -49.7602  -54.8426 N.am      7 UNK        -0.4444 
     38 C          24.7107  -49.2038  -54.0748 C.2       7 UNK         0.5104 
     39 O          23.6003  -49.7049  -53.8901 O.2       7 UNK        -0.5100 
     40 CA         25.0586  -47.8589  -53.3961 C.3       6 UNK         0.0396 
     41 CB         24.4024  -47.7168  -52.0070 C.3       6 UNK        -0.1801 
     42 N          26.4994  -47.5763  -53.3176 N.am      6 UNK        -0.4747 
     43 C          27.4442  -48.3059  -52.7031 C.2       6 UNK         0.5012 
     44 O          27.2172  -49.3305  -52.0571 O.2       6 UNK        -0.5003 
     45 CA         28.9008  -47.8330  -52.8868 C.3       5 UNK         0.0782 
     46 C46        29.6489  -47.8725  -51.5290 C.3       11 UNK        -0.0868 
     47 S47        31.3173  -47.1340  -51.5824 S.3       11 UNK        -0.2515 
     48 C48        31.0977  -45.5890  -50.6314 C.3       11 UNK         0.0199 
     49 N          29.6066  -48.5899  -53.9305 N.am      5 UNK        -0.4607 
     50 C          29.2089  -48.8272  -55.1909 C.2       4 UNK         0.5031 
     51 O          28.1157  -48.4828  -55.6510 O.2       4 UNK        -0.5119 
     52 CA         30.1684  -49.5969  -56.1180 C.3       4 UNK         0.0263 
     53 CB         30.3924  -48.8301  -57.4404 C.3       4 UNK        -0.1967 
     54 N          31.4476  -50.0070  -55.5139 N.am      4 UNK        -0.4237 
     55 C          32.4839  -49.2208  -55.1894 C.2       3 UNK         0.4908 
     56 O          32.4716  -47.9901  -55.2871 O.2       3 UNK        -0.5102 
     57 CA         33.7488  -49.9304  -54.6795 C.3       3 UNK         0.0241 
     58 CB         34.3004  -50.9389  -55.7075 C.3       3 UNK        -0.1971 
     59 N          34.7453  -48.9028  -54.4161 N.am      3 UNK        -0.4139 
     60 C          35.8136  -48.9708  -53.6157 C.2       2 UNK         0.5016 
     61 O          36.1444  -49.9809  -52.9935 O.2       2 UNK        -0.5319 
     62 CA         36.6612  -47.6871  -53.4940 C.3       2 UNK         0.0286 
     63 CB         37.9846  -47.8389  -54.2614 C.3       2 UNK        -0.1963 
     64 N          35.9534  -46.5049  -53.9988 N.am      2 UNK        -0.4790 
     65 C          34.9710  -45.8682  -53.3492 C.2       1 UNK         0.5024 
     66 O          34.6962  -46.0841  -52.1691 O.2       1 UNK        -0.4888 
     67 H67        34.0109  -45.0799  -58.6142 H         1 UNK         0.0892 
     68 H68        34.6309  -46.7024  -58.2860 H         1 UNK         0.0892 
     69 H69        33.0165  -46.2482  -57.7414 H         1 UNK         0.0892 
     70 H70        32.8675  -45.6098  -55.6463 H         1 UNK         0.3107 
     71 H71        33.1467  -44.8743  -53.6668 H         1 UNK         0.0773 
     72 H72        35.6548  -43.3463  -54.5307 H         1 UNK         0.0680 
     73 H73        34.8948  -43.1812  -52.9760 H         1 UNK         0.0680 
     74 H74        32.3075  -40.5650  -53.4273 H         1 UNK         0.0650 
     75 H75        33.4282  -41.4169  -52.4002 H         1 UNK         0.0650 
     76 H76        32.8078  -43.6300  -51.4455 H         1 UNK         0.1397 
     77 H77        28.7432  -44.9354  -51.8530 H         1 UNK         0.1363 
     78 H78        30.1696  -41.6038  -54.1448 H         1 UNK         0.1355 
     79 H79        27.1896  -42.9138  -53.0222 H         1 UNK         0.0707 
     80 H80        27.9510  -42.3262  -54.4818 H         1 UNK         0.0707 
     81 H81        29.7475  -44.3313  -55.4629 H         1 UNK         0.1034 
     82 H82        29.2644  -45.9893  -55.6049 H         1 UNK         0.1034 
     83 H83        28.3429  -43.6743  -57.3467 H         1 UNK         0.0482 
     84 H84        28.9162  -46.3917  -59.3357 H         1 UNK         0.3460 
     85 H85        30.5707  -45.9912  -59.7291 H         1 UNK         0.3460 
     86 H86        27.1775  -46.3362  -57.1556 H         1 UNK         0.2989 
     87 H87        24.5892  -45.7726  -58.2897 H         1 UNK         0.0559 
     88 H88        25.6033  -46.0809  -61.1645 H         1 UNK         0.0848 
     89 H89        24.5188  -44.8292  -60.5750 H         1 UNK         0.0848 
     90 H90        23.9827  -46.4983  -60.6093 H         1 UNK         0.0848 
     91 H91        24.9376  -47.9633  -58.1910 H         1 UNK         0.3144 
     92 H92        25.6077  -50.0595  -59.4932 H         1 UNK         0.0727 
     93 H93        28.6243  -50.3667  -59.0542 H         1 UNK         0.0790 
     94 H94        27.8208  -50.3766  -60.6168 H         1 UNK         0.0790 
     95 H95        27.4845  -51.6439  -59.4517 H         1 UNK         0.0790 
     96 H96        26.8895  -49.3617  -56.9288 H         1 UNK         0.3215 
     97 H97        24.6117  -51.5473  -55.2388 H         1 UNK         0.0863 
     98 H98        26.6329  -52.0974  -53.8890 H         1 UNK         0.0808 
     99 H99        27.6780  -51.5645  -55.2025 H         1 UNK         0.0808 
    100 H100       26.6375  -52.9653  -55.4166 H         1 UNK         0.0808 
    101 H101       26.5308  -49.2542  -54.9502 H         1 UNK         0.3118 
    102 H102       24.6384  -47.0841  -54.0390 H         1 UNK         0.0546 
    103 H103       24.7252  -48.5034  -51.3245 H         1 UNK         0.0828 
    104 H104       23.3156  -47.7753  -52.0777 H         1 UNK         0.0828 
    105 H105       24.6427  -46.7566  -51.5509 H         1 UNK         0.0828 
    106 H106       26.8005  -46.7693  -53.8523 H         1 UNK         0.3005 
    107 H107       28.8814  -46.7977  -53.2226 H         1 UNK         0.1257 
    108 H108       29.7592  -48.9044  -51.1897 H         1 UNK         0.0775 
    109 H109       29.0625  -47.3721  -50.7564 H         1 UNK         0.0775 
    110 H110       30.3081  -45.6916  -49.8863 H         1 UNK         0.0840 
    111 H111       32.0142  -45.4041  -50.0687 H         1 UNK         0.0840 
    112 H112       30.5304  -48.9033  -53.6735 H         1 UNK         0.2987 
    113 H113       29.6491  -50.5229  -56.3683 H         1 UNK         0.0785 
    114 H114       29.4469  -48.5790  -57.9196 H         1 UNK         0.0798 
    115 H115       30.9694  -49.4215  -58.1509 H         1 UNK         0.0798 
    116 H116       30.9144  -47.8861  -57.2888 H         1 UNK         0.0798 
    117 H117       31.5507  -51.0025  -55.3700 H         1 UNK         0.3079 
    118 H118       33.5054  -50.4407  -53.7455 H         1 UNK         0.0794 
    119 H119       33.5966  -51.7512  -55.8907 H         1 UNK         0.0786 
    120 H120       35.2264  -51.3961  -55.3580 H         1 UNK         0.0786 
    121 H121       34.5075  -50.4612  -56.6662 H         1 UNK         0.0786 
    122 H122       34.5066  -48.0075  -54.8248 H         1 UNK         0.3032 
    123 H123       36.8871  -47.5418  -52.4350 H         1 UNK         0.1094 
    124 H124       37.8174  -47.9879  -55.3291 H         1 UNK         0.0794 
    125 H125       38.6164  -46.9588  -54.1400 H         1 UNK         0.0794 
    126 H126       38.5517  -48.6966  -53.8967 H         1 UNK         0.0794 
    127 H127       36.1411  -46.2142  -54.9557 H         1 UNK         0.3016 
@<TRIPOS>BOND
     1    1    2 1    
     2    1   67 1    
     3    1   68 1    
     4    1   69 1    
     5    2    3 2    
     6    2    4 am   BACKBONE|DICT|INTERRES
     7    4    5 1    
     8    4   70 1    
     9    5    6 1    
    10    5   65 1    
    11    5   71 1    
    12    6    7 1    
    13    6   72 1    
    14    6   73 1    
    15    7    8 1    
    16    8    9 1    
    17    8   74 1    
    18    8   75 1    
    19    9   10 ar   
    20    9   14 ar   
    21   10   11 ar   
    22   10   76 1    
    23   11   12 ar   
    24   11   48 1    
    25   12   13 ar   
    26   12   77 1    
    27   13   14 ar   
    28   13   15 1    
    29   14   78 1    
    30   15   16 1    
    31   15   79 1    
    32   15   80 1    
    33   16   17 1    
    34   17   18 1    
    35   17   81 1    
    36   17   82 1    
    37   18   19 1    
    38   18   22 1    
    39   18   83 1    
    40   19   20 am   BACKBONE|DICT|INTERRES
    41   19   21 2    
    42   20   84 1    
    43   20   85 1    
    44   22   23 am   BACKBONE|DICT|INTERRES
    45   22   86 1    
    46   23   24 2    
    47   23   25 1    
    48   25   26 1    
    49   25   27 1    
    50   25   87 1    
    51   26   88 1    
    52   26   89 1    
    53   26   90 1    
    54   27   28 am   BACKBONE|DICT|INTERRES
    55   27   91 1    
    56   28   29 2    
    57   28   30 1    
    58   30   31 1    
    59   30   32 1    
    60   30   92 1    
    61   31   93 1    
    62   31   94 1    
    63   31   95 1    
    64   32   33 am   BACKBONE|DICT|INTERRES
    65   32   96 1    
    66   33   34 2    
    67   33   35 1    
    68   35   36 1    
    69   35   37 1    
    70   35   97 1    
    71   36   98 1    
    72   36   99 1    
    73   36  100 1    
    74   37   38 am   BACKBONE|DICT|INTERRES
    75   37  101 1    
    76   38   39 2    
    77   38   40 1    
    78   40   41 1    
    79   40   42 1    
    80   40  102 1    
    81   41  103 1    
    82   41  104 1    
    83   41  105 1    
    84   42   43 am   BACKBONE|DICT|INTERRES
    85   42  106 1    
    86   43   44 2    
    87   43   45 1    
    88   45   46 1    
    89   45   49 1    
    90   45  107 1    
    91   46   47 1    
    92   46  108 1    
    93   46  109 1    
    94   47   48 1    
    95   48  110 1    
    96   48  111 1    
    97   49   50 am   BACKBONE|DICT|INTERRES
    98   49  112 1    
    99   50   51 2    
   100   50   52 1    
   101   52   53 1    
   102   52   54 1    
   103   52  113 1    
   104   53  114 1    
   105   53  115 1    
   106   53  116 1    
   107   54   55 am   BACKBONE|DICT|INTERRES
   108   54  117 1    
   109   55   56 2    
   110   55   57 1    
   111   57   58 1    
   112   57   59 1    
   113   57  118 1    
   114   58  119 1    
   115   58  120 1    
   116   58  121 1    
   117   59   60 am   BACKBONE|DICT|INTERRES
   118   59  122 1    
   119   60   61 2    
   120   60   62 1    
   121   62   63 1    
   122   62   64 1    
   123   62  123 1    
   124   63  124 1    
   125   63  125 1    
   126   63  126 1    
   127   64   65 am   BACKBONE|DICT|INTERRES
   128   64  127 1    
   129   65   66 2    
@<TRIPOS>SUBSTRUCTURE
     1 UNK         1 GROUP             0       ****    0 ROOT    
