@<TRIPOS>MOLECULE
3R134
127   129    1
SMALL
USER_CHARGES


@<TRIPOS>ATOM
      1 CA         30.3995  -45.8458  -52.5465 C.3       0 UNK        -0.1968 
      2 C          31.7075  -45.4334  -51.8910 C.2       0 UNK         0.4852 
      3 O          31.8846  -45.6498  -50.6919 O.2       0 UNK        -0.5359 
      4 N          32.6316  -44.8552  -52.6698 N.am      1 UNK        -0.4300 
      5 CA         33.9611  -44.4207  -52.2142 C.3       1 UNK         0.0863 
      6 C6         34.5717  -43.3518  -53.1543 C.3       11 UNK        -0.0953 
      7 S7         33.5288  -41.8607  -53.2856 S.3       11 UNK        -0.2369 
      8 C8         33.2904  -41.7242  -55.0843 C.3       11 UNK         0.0226 
      9 C9         32.3237  -42.7693  -55.6226 C.ar      11 UNK        -0.0699 
     10 C10        32.8012  -43.8914  -56.3079 C.ar      11 UNK        -0.0804 
     11 C11        31.9117  -44.8289  -56.8421 C.ar      11 UNK        -0.0871 
     12 C12        30.5352  -44.6303  -56.6922 C.ar      11 UNK        -0.1008 
     13 C13        30.0454  -43.5116  -56.0143 C.ar      11 UNK        -0.0735 
     14 C14        30.9449  -42.5878  -55.4745 C.ar      11 UNK        -0.0945 
     15 C15        28.5452  -43.2915  -55.8890 C.3       11 UNK         0.0169 
     16 S16        27.8866  -44.1557  -54.4367 S.3       11 UNK        -0.2669 
     17 C17        26.1404  -43.6411  -54.4501 C.3       11 UNK        -0.0850 
     18 CA         25.1761  -44.8183  -54.7968 C.3       10 UNK         0.0855 
     19 C          23.7377  -44.6105  -54.2265 C.2       10 UNK         0.5543 
     20 N          23.6121  -44.3504  -52.9314 N.am      10 UNK        -0.7343 
     21 O          22.7279  -44.7178  -54.9209 O.2       10 UNK        -0.5027 
     22 N          25.1852  -45.2020  -56.2231 N.am      10 UNK        -0.4495 
     23 C          24.7911  -44.4349  -57.2508 C.2       10 UNK         0.4903 
     24 O          24.5889  -43.2220  -57.1641 O.2       10 UNK        -0.4860 
     25 CA         24.5105  -45.1545  -58.5872 C.3       9 UNK         0.0227 
     26 CB         24.2142  -44.1763  -59.7457 C.3       9 UNK        -0.1964 
     27 N          25.5314  -46.1280  -58.9881 N.am      9 UNK        -0.4231 
     28 C          26.8214  -45.8958  -59.2666 C.2       9 UNK         0.5014 
     29 O          27.3700  -44.8008  -59.1357 O.2       9 UNK        -0.5270 
     30 CA         27.6181  -47.1017  -59.8047 C.3       8 UNK         0.0284 
     31 CB         29.0906  -46.7622  -60.0987 C.3       8 UNK        -0.1977 
     32 N          27.5581  -48.2331  -58.8775 N.am      8 UNK        -0.4342 
     33 C          26.5569  -49.1242  -58.8132 C.2       8 UNK         0.5039 
     34 O          25.5909  -49.1079  -59.5773 O.2       8 UNK        -0.5547 
     35 CA         26.5967  -50.1650  -57.6766 C.3       7 UNK         0.0281 
     36 CB         27.3043  -51.4469  -58.1428 C.3       7 UNK        -0.1963 
     37 N          27.2505  -49.6667  -56.4652 N.am      7 UNK        -0.4444 
     38 C          26.8437  -48.6020  -55.7589 C.2       7 UNK         0.5104 
     39 O          25.7787  -48.0174  -55.9616 O.2       7 UNK        -0.5100 
     40 CA         27.8001  -48.0573  -54.6809 C.3       6 UNK         0.0396 
     41 CB         27.2730  -48.3842  -53.2754 C.3       6 UNK        -0.1801 
     42 N          29.1974  -48.4975  -54.7893 N.am      6 UNK        -0.4747 
     43 C          30.0053  -48.3345  -55.8506 C.2       6 UNK         0.5012 
     44 O          29.6357  -47.8471  -56.9171 O.2       6 UNK        -0.5003 
     45 CA         31.4533  -48.8500  -55.7117 C.3       5 UNK         0.0782 
     46 C46        32.4157  -47.6944  -55.3175 C.3       11 UNK        -0.0868 
     47 S47        33.5021  -47.1379  -56.6692 S.3       11 UNK        -0.2515 
     48 C48        32.4315  -46.0224  -57.6350 C.3       11 UNK         0.0199 
     49 N          31.5397  -50.0020  -54.7971 N.am      5 UNK        -0.4607 
     50 C          30.9947  -51.2027  -55.0598 C.2       4 UNK         0.5031 
     51 O          30.3814  -51.4411  -56.1015 O.2       4 UNK        -0.5119 
     52 CA         31.0838  -52.3065  -53.9840 C.3       4 UNK         0.0263 
     53 CB         31.2781  -53.7088  -54.6006 C.3       4 UNK        -0.1967 
     54 N          32.0621  -52.0565  -52.9176 N.am      4 UNK        -0.4237 
     55 C          33.3963  -51.9958  -53.0297 C.2       3 UNK         0.4908 
     56 O          34.0211  -52.1543  -54.0804 O.2       3 UNK        -0.5102 
     57 CA         34.1625  -51.6671  -51.7360 C.3       3 UNK         0.0241 
     58 CB         35.1283  -52.8049  -51.3628 C.3       3 UNK        -0.1971 
     59 N          34.9082  -50.4124  -51.8561 N.am      3 UNK        -0.4139 
     60 C          34.3596  -49.2201  -52.1239 C.2       2 UNK         0.5016 
     61 O          33.1436  -49.0366  -52.2584 O.2       2 UNK        -0.5319 
     62 CA         35.3324  -48.0448  -52.2909 C.3       2 UNK         0.0286 
     63 CB         36.2089  -48.2089  -53.5475 C.3       2 UNK        -0.1963 
     64 N          34.5597  -46.8121  -52.3991 N.am      2 UNK        -0.4790 
     65 C          34.9521  -45.5927  -52.0154 C.2       1 UNK         0.5024 
     66 O          36.0601  -45.3671  -51.5259 O.2       1 UNK        -0.4888 
     67 H67        30.3592  -45.5532  -53.5951 H         1 UNK         0.0892 
     68 H68        30.2784  -46.9265  -52.4884 H         1 UNK         0.0892 
     69 H69        29.5583  -45.3796  -52.0347 H         1 UNK         0.0892 
     70 H70        32.4212  -44.6576  -53.6386 H         1 UNK         0.3107 
     71 H71        33.8402  -43.9602  -51.2311 H         1 UNK         0.0773 
     72 H72        34.7538  -43.7727  -54.1441 H         1 UNK         0.0680 
     73 H73        35.5453  -43.0258  -52.7834 H         1 UNK         0.0680 
     74 H74        34.2570  -41.7911  -55.5862 H         1 UNK         0.0650 
     75 H75        32.9032  -40.7292  -55.3084 H         1 UNK         0.0650 
     76 H76        33.8653  -44.0305  -56.4425 H         1 UNK         0.1397 
     77 H77        29.8332  -45.3337  -57.1166 H         1 UNK         0.1363 
     78 H78        30.5724  -41.7177  -54.9509 H         1 UNK         0.1355 
     79 H79        28.0340  -43.6497  -56.7839 H         1 UNK         0.0707 
     80 H80        28.3264  -42.2254  -55.8109 H         1 UNK         0.0707 
     81 H81        25.9455  -43.2482  -53.4518 H         1 UNK         0.1034 
     82 H82        25.9975  -42.7913  -55.1171 H         1 UNK         0.1034 
     83 H83        25.5366  -45.7062  -54.2761 H         1 UNK         0.0482 
     84 H84        24.4153  -44.2946  -52.3252 H         1 UNK         0.3460 
     85 H85        22.6880  -44.2278  -52.5470 H         1 UNK         0.3460 
     86 H86        25.3210  -46.1962  -56.3833 H         1 UNK         0.2989 
     87 H87        23.6022  -45.7352  -58.4194 H         1 UNK         0.0559 
     88 H88        23.3633  -43.5357  -59.5104 H         1 UNK         0.0848 
     89 H89        23.9701  -44.7091  -60.6646 H         1 UNK         0.0848 
     90 H90        25.0640  -43.5241  -59.9512 H         1 UNK         0.0848 
     91 H91        25.2085  -47.0821  -59.1160 H         1 UNK         0.3144 
     92 H92        27.1585  -47.3932  -60.7516 H         1 UNK         0.0727 
     93 H93        29.6021  -46.3976  -59.2098 H         1 UNK         0.0790 
     94 H94        29.1665  -45.9832  -60.8584 H         1 UNK         0.0790 
     95 H95        29.6350  -47.6312  -60.4684 H         1 UNK         0.0790 
     96 H96        28.2857  -48.2568  -58.1653 H         1 UNK         0.3215 
     97 H97        25.5643  -50.4123  -57.4201 H         1 UNK         0.0863 
     98 H98        27.2697  -52.2211  -57.3759 H         1 UNK         0.0808 
     99 H99        28.3522  -51.2642  -58.3858 H         1 UNK         0.0808 
    100 H100       26.8272  -51.8539  -59.0354 H         1 UNK         0.0808 
    101 H101       28.1441  -50.0771  -56.2301 H         1 UNK         0.3118 
    102 H102       27.8046  -46.9744  -54.7980 H         1 UNK         0.0546 
    103 H103       27.2903  -49.4564  -53.0773 H         1 UNK         0.0828 
    104 H104       26.2420  -48.0478  -53.1560 H         1 UNK         0.0828 
    105 H105       27.8610  -47.8874  -52.5037 H         1 UNK         0.0828 
    106 H106       29.5887  -48.9444  -53.9730 H         1 UNK         0.3005 
    107 H107       31.7380  -49.2214  -56.6992 H         1 UNK         0.1257 
    108 H108       31.8987  -46.8347  -54.8907 H         1 UNK         0.0775 
    109 H109       33.0981  -48.0263  -54.5407 H         1 UNK         0.0775 
    110 H110       33.0002  -45.6511  -58.4886 H         1 UNK         0.0840 
    111 H111       31.6120  -46.6029  -58.0559 H         1 UNK         0.0840 
    112 H112       32.0329  -49.8597  -53.9224 H         1 UNK         0.2987 
    113 H113       30.1099  -52.3058  -53.4920 H         1 UNK         0.0785 
    114 H114       30.4532  -53.9623  -55.2680 H         1 UNK         0.0798 
    115 H115       31.3165  -54.4796  -53.8309 H         1 UNK         0.0798 
    116 H116       32.1962  -53.7717  -55.1856 H         1 UNK         0.0798 
    117 H117       31.6621  -51.8744  -52.0066 H         1 UNK         0.3079 
    118 H118       33.4484  -51.5479  -50.9179 H         1 UNK         0.0794 
    119 H119       35.6289  -52.6075  -50.4144 H         1 UNK         0.0786 
    120 H120       35.8959  -52.9503  -52.1246 H         1 UNK         0.0786 
    121 H121       34.5939  -53.7498  -51.2550 H         1 UNK         0.0786 
    122 H122       35.9135  -50.4813  -51.7903 H         1 UNK         0.3032 
    123 H123       35.9643  -48.0025  -51.4006 H         1 UNK         0.1094 
    124 H124       35.6054  -48.2867  -54.4527 H         1 UNK         0.0794 
    125 H125       36.8856  -47.3632  -53.6718 H         1 UNK         0.0794 
    126 H126       36.8263  -49.1058  -53.4890 H         1 UNK         0.0794 
    127 H127       33.6004  -46.9491  -52.6889 H         1 UNK         0.3016 
@<TRIPOS>BOND
     1    1    2 1    
     2    1   67 1    
     3    1   68 1    
     4    1   69 1    
     5    2    3 2    
     6    2    4 am   BACKBONE|DICT|INTERRES
     7    4    5 1    
     8    4   70 1    
     9    5    6 1    
    10    5   65 1    
    11    5   71 1    
    12    6    7 1    
    13    6   72 1    
    14    6   73 1    
    15    7    8 1    
    16    8    9 1    
    17    8   74 1    
    18    8   75 1    
    19    9   10 ar   
    20    9   14 ar   
    21   10   11 ar   
    22   10   76 1    
    23   11   12 ar   
    24   11   48 1    
    25   12   13 ar   
    26   12   77 1    
    27   13   14 ar   
    28   13   15 1    
    29   14   78 1    
    30   15   16 1    
    31   15   79 1    
    32   15   80 1    
    33   16   17 1    
    34   17   18 1    
    35   17   81 1    
    36   17   82 1    
    37   18   19 1    
    38   18   22 1    
    39   18   83 1    
    40   19   20 am   BACKBONE|DICT|INTERRES
    41   19   21 2    
    42   20   84 1    
    43   20   85 1    
    44   22   23 am   BACKBONE|DICT|INTERRES
    45   22   86 1    
    46   23   24 2    
    47   23   25 1    
    48   25   26 1    
    49   25   27 1    
    50   25   87 1    
    51   26   88 1    
    52   26   89 1    
    53   26   90 1    
    54   27   28 am   BACKBONE|DICT|INTERRES
    55   27   91 1    
    56   28   29 2    
    57   28   30 1    
    58   30   31 1    
    59   30   32 1    
    60   30   92 1    
    61   31   93 1    
    62   31   94 1    
    63   31   95 1    
    64   32   33 am   BACKBONE|DICT|INTERRES
    65   32   96 1    
    66   33   34 2    
    67   33   35 1    
    68   35   36 1    
    69   35   37 1    
    70   35   97 1    
    71   36   98 1    
    72   36   99 1    
    73   36  100 1    
    74   37   38 am   BACKBONE|DICT|INTERRES
    75   37  101 1    
    76   38   39 2    
    77   38   40 1    
    78   40   41 1    
    79   40   42 1    
    80   40  102 1    
    81   41  103 1    
    82   41  104 1    
    83   41  105 1    
    84   42   43 am   BACKBONE|DICT|INTERRES
    85   42  106 1    
    86   43   44 2    
    87   43   45 1    
    88   45   46 1    
    89   45   49 1    
    90   45  107 1    
    91   46   47 1    
    92   46  108 1    
    93   46  109 1    
    94   47   48 1    
    95   48  110 1    
    96   48  111 1    
    97   49   50 am   BACKBONE|DICT|INTERRES
    98   49  112 1    
    99   50   51 2    
   100   50   52 1    
   101   52   53 1    
   102   52   54 1    
   103   52  113 1    
   104   53  114 1    
   105   53  115 1    
   106   53  116 1    
   107   54   55 am   BACKBONE|DICT|INTERRES
   108   54  117 1    
   109   55   56 2    
   110   55   57 1    
   111   57   58 1    
   112   57   59 1    
   113   57  118 1    
   114   58  119 1    
   115   58  120 1    
   116   58  121 1    
   117   59   60 am   BACKBONE|DICT|INTERRES
   118   59  122 1    
   119   60   61 2    
   120   60   62 1    
   121   62   63 1    
   122   62   64 1    
   123   62  123 1    
   124   63  124 1    
   125   63  125 1    
   126   63  126 1    
   127   64   65 am   BACKBONE|DICT|INTERRES
   128   64  127 1    
   129   65   66 2    
@<TRIPOS>SUBSTRUCTURE
     1 UNK         1 GROUP             0       ****    0 ROOT    
