@<TRIPOS>MOLECULE
3R134
127   129    1
SMALL
USER_CHARGES


@<TRIPOS>ATOM
      1 CA         38.2369  -46.7141  -54.5053 C.3       0 UNK        -0.1968 
      2 C          37.3744  -46.0384  -53.4419 C.2       0 UNK         0.4852 
      3 O          37.6798  -46.1566  -52.2564 O.2       0 UNK        -0.5359 
      4 N          36.3024  -45.3172  -53.8020 N.am      1 UNK        -0.4300 
      5 CA         35.7730  -45.1047  -55.1567 C.3       1 UNK         0.0863 
      6 C6         34.8229  -43.8794  -55.2267 C.3       11 UNK        -0.0953 
      7 S7         33.5830  -43.7709  -53.8865 S.3       11 UNK        -0.2369 
      8 C8         32.1022  -44.4952  -54.6552 C.3       11 UNK         0.0226 
      9 C9         30.8347  -43.8993  -54.0587 C.ar      11 UNK        -0.0699 
     10 C10        30.3869  -44.3079  -52.7973 C.ar      11 UNK        -0.0804 
     11 C11        29.2352  -43.7449  -52.2339 C.ar      11 UNK        -0.0871 
     12 C12        28.5325  -42.7705  -52.9479 C.ar      11 UNK        -0.1008 
     13 C13        28.9744  -42.3453  -54.2031 C.ar      11 UNK        -0.0735 
     14 C14        30.1232  -42.9176  -54.7576 C.ar      11 UNK        -0.0945 
     15 C15        28.2311  -41.2287  -54.9220 C.3       11 UNK         0.0169 
     16 S16        26.8394  -41.8619  -55.9065 S.3       11 UNK        -0.2669 
     17 C17        27.6227  -42.0161  -57.5455 C.3       11 UNK        -0.0850 
     18 CA         26.7307  -42.7707  -58.5643 C.3       10 UNK         0.0855 
     19 C          27.3387  -42.6697  -59.9958 C.2       10 UNK         0.5543 
     20 N          27.8252  -43.7466  -60.6017 N.am      10 UNK        -0.7343 
     21 O          27.3669  -41.5833  -60.5688 O.2       10 UNK        -0.5027 
     22 N          26.4473  -44.1389  -58.1083 N.am      10 UNK        -0.4495 
     23 C          25.5287  -44.9618  -58.6291 C.2       10 UNK         0.4903 
     24 O          24.7022  -44.6159  -59.4749 O.2       10 UNK        -0.4860 
     25 CA         25.5569  -46.4221  -58.1274 C.3       9 UNK         0.0227 
     26 CB         24.9763  -47.4127  -59.1575 C.3       9 UNK        -0.1964 
     27 N          26.8869  -46.8674  -57.6854 N.am      9 UNK        -0.4231 
     28 C          28.0247  -46.8703  -58.4004 C.2       9 UNK         0.5014 
     29 O          28.1151  -46.4779  -59.5644 O.2       9 UNK        -0.5270 
     30 CA         29.2832  -47.3646  -57.6717 C.3       8 UNK         0.0284 
     31 CB         29.7551  -46.3027  -56.6631 C.3       8 UNK        -0.1977 
     32 N          29.0625  -48.6500  -57.0025 N.am      8 UNK        -0.4342 
     33 C          28.8045  -49.8010  -57.6447 C.2       8 UNK         0.5039 
     34 O          28.8605  -49.9339  -58.8678 O.2       8 UNK        -0.5547 
     35 CA         28.3788  -51.0017  -56.7849 C.3       7 UNK         0.0281 
     36 CB         29.6006  -51.7922  -56.2853 C.3       7 UNK        -0.1963 
     37 N          27.5446  -50.5799  -55.6565 N.am      7 UNK        -0.4444 
     38 C          26.2409  -50.2772  -55.7602 C.2       7 UNK         0.5104 
     39 O          25.5875  -50.4163  -56.7939 O.2       7 UNK        -0.5100 
     40 CA         25.5397  -49.7182  -54.5073 C.3       6 UNK         0.0396 
     41 CB         24.8249  -50.8466  -53.7473 C.3       6 UNK        -0.1801 
     42 N          26.4480  -49.0221  -53.5930 N.am      6 UNK        -0.4747 
     43 C          27.0414  -47.8457  -53.8470 C.2       6 UNK         0.5012 
     44 O          26.8369  -47.1866  -54.8658 O.2       6 UNK        -0.5003 
     45 CA         28.0973  -47.3722  -52.8261 C.3       5 UNK         0.0782 
     46 C46        27.4601  -46.4728  -51.7405 C.3       11 UNK        -0.0868 
     47 S47        28.6971  -45.9118  -50.5200 S.3       11 UNK        -0.2515 
     48 C48        28.7720  -44.1187  -50.8287 C.3       11 UNK         0.0199 
     49 N          28.8359  -48.5023  -52.2443 N.am      5 UNK        -0.4607 
     50 C          29.6343  -49.3185  -52.9370 C.2       4 UNK         0.5031 
     51 O          29.8262  -49.2142  -54.1515 O.2       4 UNK        -0.5119 
     52 CA         30.2592  -50.4825  -52.1657 C.3       4 UNK         0.0263 
     53 CB         29.2741  -51.6636  -52.0768 C.3       4 UNK        -0.1967 
     54 N          31.4701  -50.8885  -52.8663 N.am      4 UNK        -0.4237 
     55 C          32.4905  -51.5797  -52.3448 C.2       3 UNK         0.4908 
     56 O          32.5047  -52.0182  -51.1939 O.2       3 UNK        -0.5102 
     57 CA         33.7091  -51.8237  -53.2567 C.3       3 UNK         0.0241 
     58 CB         33.6244  -53.2186  -53.8984 C.3       3 UNK        -0.1971 
     59 N          33.8617  -50.8162  -54.3125 N.am      3 UNK        -0.4139 
     60 C          34.1763  -49.5320  -54.0964 C.2       2 UNK         0.5016 
     61 O          34.4419  -49.0627  -52.9857 O.2       2 UNK        -0.5319 
     62 CA         34.1506  -48.6134  -55.3233 C.3       2 UNK         0.0286 
     63 CB         32.7137  -48.4558  -55.8562 C.3       2 UNK        -0.1963 
     64 N          34.6960  -47.3137  -54.9392 N.am      2 UNK        -0.4790 
     65 C          35.1278  -46.3635  -55.7758 C.2       1 UNK         0.5024 
     66 O          35.0646  -46.4603  -57.0016 O.2       1 UNK        -0.4888 
     67 H67        38.5428  -46.0093  -55.2773 H         1 UNK         0.0892 
     68 H68        39.1440  -47.1185  -54.0567 H         1 UNK         0.0892 
     69 H69        37.7033  -47.5416  -54.9713 H         1 UNK         0.0892 
     70 H70        35.7560  -44.8773  -53.0743 H         1 UNK         0.3107 
     71 H71        36.6205  -44.8652  -55.8013 H         1 UNK         0.0773 
     72 H72        34.3332  -43.8091  -56.2000 H         1 UNK         0.0680 
     73 H73        35.4265  -42.9734  -55.1545 H         1 UNK         0.0680 
     74 H74        32.1157  -45.5748  -54.5016 H         1 UNK         0.0650 
     75 H75        32.1199  -44.3342  -55.7339 H         1 UNK         0.0650 
     76 H76        30.9486  -45.0494  -52.2455 H         1 UNK         0.1397 
     77 H77        27.6509  -42.3167  -52.5156 H         1 UNK         0.1363 
     78 H78        30.4760  -42.5833  -55.7235 H         1 UNK         0.1355 
     79 H79        27.8416  -40.5207  -54.1887 H         1 UNK         0.0707 
     80 H80        28.9129  -40.6570  -55.5535 H         1 UNK         0.0707 
     81 H81        27.8424  -41.0071  -57.9009 H         1 UNK         0.1034 
     82 H82        28.5852  -42.5197  -57.4391 H         1 UNK         0.1034 
     83 H83        25.7725  -42.2497  -58.6133 H         1 UNK         0.0482 
     84 H84        28.2097  -43.6549  -61.5281 H         1 UNK         0.3460 
     85 H85        27.8163  -44.6572  -60.1515 H         1 UNK         0.3460 
     86 H86        27.0638  -44.5036  -57.3985 H         1 UNK         0.2989 
     87 H87        24.9201  -46.4517  -57.2422 H         1 UNK         0.0559 
     88 H88        25.5363  -47.3955  -60.0931 H         1 UNK         0.0848 
     89 H89        23.9389  -47.1729  -59.3937 H         1 UNK         0.0848 
     90 H90        24.9923  -48.4340  -58.7767 H         1 UNK         0.0848 
     91 H91        26.9407  -47.1402  -56.7049 H         1 UNK         0.3144 
     92 H92        30.0717  -47.5043  -58.4144 H         1 UNK         0.0727 
     93 H93        29.0139  -46.1021  -55.8902 H         1 UNK         0.0790 
     94 H94        29.9615  -45.3561  -57.1645 H         1 UNK         0.0790 
     95 H95        30.6714  -46.6053  -56.1663 H         1 UNK         0.0790 
     96 H96        29.0785  -48.6585  -55.9885 H         1 UNK         0.3215 
     97 H97        27.7903  -51.6702  -57.4177 H         1 UNK         0.0863 
     98 H98        29.3023  -52.6348  -55.6614 H         1 UNK         0.0808 
     99 H99        30.2878  -51.1739  -55.7106 H         1 UNK         0.0808 
    100 H100       30.1643  -52.1974  -57.1265 H         1 UNK         0.0808 
    101 H101       28.0202  -50.3916  -54.7856 H         1 UNK         0.3118 
    102 H102       24.7859  -49.0032  -54.8444 H         1 UNK         0.0546 
    103 H103       25.5279  -51.5902  -53.3698 H         1 UNK         0.0828 
    104 H104       24.1187  -51.3668  -54.3962 H         1 UNK         0.0828 
    105 H105       24.2575  -50.4588  -52.9011 H         1 UNK         0.0828 
    106 H106       26.6731  -49.4923  -52.7281 H         1 UNK         0.3005 
    107 H107       28.8168  -46.7666  -53.3825 H         1 UNK         0.1257 
    108 H108       26.6771  -47.0109  -51.2029 H         1 UNK         0.0775 
    109 H109       26.9767  -45.6061  -52.1962 H         1 UNK         0.0775 
    110 H110       27.7901  -43.6926  -50.6165 H         1 UNK         0.0840 
    111 H111       29.4590  -43.6715  -50.1091 H         1 UNK         0.0840 
    112 H112       28.7324  -48.6340  -51.2482 H         1 UNK         0.2987 
    113 H113       30.5230  -50.1386  -51.1632 H         1 UNK         0.0785 
    114 H114       28.3526  -51.3731  -51.5710 H         1 UNK         0.0798 
    115 H115       29.6996  -52.4935  -51.5126 H         1 UNK         0.0798 
    116 H116       29.0034  -52.0389  -53.0644 H         1 UNK         0.0798 
    117 H117       31.5410  -50.5224  -53.8065 H         1 UNK         0.3079 
    118 H118       34.6004  -51.7892  -52.6263 H         1 UNK         0.0794 
    119 H119       33.5395  -53.9941  -53.1356 H         1 UNK         0.0786 
    120 H120       34.5159  -53.4414  -54.4851 H         1 UNK         0.0786 
    121 H121       32.7572  -53.3108  -54.5537 H         1 UNK         0.0786 
    122 H122       33.6758  -51.1217  -55.2572 H         1 UNK         0.3032 
    123 H123       34.7878  -49.0518  -56.0949 H         1 UNK         0.1094 
    124 H124       32.6751  -47.7883  -56.7167 H         1 UNK         0.0794 
    125 H125       32.2951  -49.4091  -56.1799 H         1 UNK         0.0794 
    126 H126       32.0545  -48.0564  -55.0857 H         1 UNK         0.0794 
    127 H127       34.8117  -47.1977  -53.9385 H         1 UNK         0.3016 
@<TRIPOS>BOND
     1    1    2 1    
     2    1   67 1    
     3    1   68 1    
     4    1   69 1    
     5    2    3 2    
     6    2    4 am   BACKBONE|DICT|INTERRES
     7    4    5 1    
     8    4   70 1    
     9    5    6 1    
    10    5   65 1    
    11    5   71 1    
    12    6    7 1    
    13    6   72 1    
    14    6   73 1    
    15    7    8 1    
    16    8    9 1    
    17    8   74 1    
    18    8   75 1    
    19    9   10 ar   
    20    9   14 ar   
    21   10   11 ar   
    22   10   76 1    
    23   11   12 ar   
    24   11   48 1    
    25   12   13 ar   
    26   12   77 1    
    27   13   14 ar   
    28   13   15 1    
    29   14   78 1    
    30   15   16 1    
    31   15   79 1    
    32   15   80 1    
    33   16   17 1    
    34   17   18 1    
    35   17   81 1    
    36   17   82 1    
    37   18   19 1    
    38   18   22 1    
    39   18   83 1    
    40   19   20 am   BACKBONE|DICT|INTERRES
    41   19   21 2    
    42   20   84 1    
    43   20   85 1    
    44   22   23 am   BACKBONE|DICT|INTERRES
    45   22   86 1    
    46   23   24 2    
    47   23   25 1    
    48   25   26 1    
    49   25   27 1    
    50   25   87 1    
    51   26   88 1    
    52   26   89 1    
    53   26   90 1    
    54   27   28 am   BACKBONE|DICT|INTERRES
    55   27   91 1    
    56   28   29 2    
    57   28   30 1    
    58   30   31 1    
    59   30   32 1    
    60   30   92 1    
    61   31   93 1    
    62   31   94 1    
    63   31   95 1    
    64   32   33 am   BACKBONE|DICT|INTERRES
    65   32   96 1    
    66   33   34 2    
    67   33   35 1    
    68   35   36 1    
    69   35   37 1    
    70   35   97 1    
    71   36   98 1    
    72   36   99 1    
    73   36  100 1    
    74   37   38 am   BACKBONE|DICT|INTERRES
    75   37  101 1    
    76   38   39 2    
    77   38   40 1    
    78   40   41 1    
    79   40   42 1    
    80   40  102 1    
    81   41  103 1    
    82   41  104 1    
    83   41  105 1    
    84   42   43 am   BACKBONE|DICT|INTERRES
    85   42  106 1    
    86   43   44 2    
    87   43   45 1    
    88   45   46 1    
    89   45   49 1    
    90   45  107 1    
    91   46   47 1    
    92   46  108 1    
    93   46  109 1    
    94   47   48 1    
    95   48  110 1    
    96   48  111 1    
    97   49   50 am   BACKBONE|DICT|INTERRES
    98   49  112 1    
    99   50   51 2    
   100   50   52 1    
   101   52   53 1    
   102   52   54 1    
   103   52  113 1    
   104   53  114 1    
   105   53  115 1    
   106   53  116 1    
   107   54   55 am   BACKBONE|DICT|INTERRES
   108   54  117 1    
   109   55   56 2    
   110   55   57 1    
   111   57   58 1    
   112   57   59 1    
   113   57  118 1    
   114   58  119 1    
   115   58  120 1    
   116   58  121 1    
   117   59   60 am   BACKBONE|DICT|INTERRES
   118   59  122 1    
   119   60   61 2    
   120   60   62 1    
   121   62   63 1    
   122   62   64 1    
   123   62  123 1    
   124   63  124 1    
   125   63  125 1    
   126   63  126 1    
   127   64   65 am   BACKBONE|DICT|INTERRES
   128   64  127 1    
   129   65   66 2    
@<TRIPOS>SUBSTRUCTURE
     1 UNK         1 GROUP             0       ****    0 ROOT    
