@<TRIPOS>MOLECULE
3R134
127   129    1
SMALL
USER_CHARGES


@<TRIPOS>ATOM
      1 CA         34.0048  -42.9435  -50.2229 C.3       0 UNK        -0.1968 
      2 C          34.1971  -44.2054  -51.0510 C.2       0 UNK         0.4852 
      3 O          33.2758  -45.0159  -51.1408 O.2       0 UNK        -0.5359 
      4 N          35.3813  -44.3656  -51.6582 N.am      1 UNK        -0.4300 
      5 CA         35.7932  -45.4985  -52.4979 C.3       1 UNK         0.0863 
      6 C6         35.0162  -45.6030  -53.8455 C.3       11 UNK        -0.0953 
      7 S7         35.1301  -44.0710  -54.8333 S.3       11 UNK        -0.2369 
      8 C8         33.8756  -44.3657  -56.1303 C.3       11 UNK         0.0226 
      9 C9         32.4260  -44.0385  -55.7576 C.ar      11 UNK        -0.0699 
     10 C10        31.9892  -43.9239  -54.4318 C.ar      11 UNK        -0.0804 
     11 C11        30.6434  -43.6955  -54.1377 C.ar      11 UNK        -0.0871 
     12 C12        29.7266  -43.5412  -55.1790 C.ar      11 UNK        -0.1008 
     13 C13        30.1433  -43.6359  -56.5093 C.ar      11 UNK        -0.0735 
     14 C14        31.4907  -43.8892  -56.7886 C.ar      11 UNK        -0.0945 
     15 C15        29.1298  -43.5424  -57.6414 C.3       11 UNK         0.0169 
     16 S16        28.0791  -42.0577  -57.5416 S.3       11 UNK        -0.2669 
     17 C17        26.9543  -42.3535  -58.9490 C.3       11 UNK        -0.0850 
     18 CA         25.5811  -42.9517  -58.5378 C.3       10 UNK         0.0855 
     19 C          24.6497  -43.0456  -59.7835 C.2       10 UNK         0.5543 
     20 N          24.3731  -44.2282  -60.3226 N.am      10 UNK        -0.7343 
     21 O          24.1729  -42.0225  -60.2681 O.2       10 UNK        -0.5027 
     22 N          25.7306  -44.2182  -57.8030 N.am      10 UNK        -0.4495 
     23 C          24.7550  -44.8514  -57.1393 C.2       10 UNK         0.4903 
     24 O          23.6453  -44.3578  -56.9322 O.2       10 UNK        -0.4860 
     25 CA         25.0627  -46.2764  -56.6251 C.3       9 UNK         0.0227 
     26 CB         23.8224  -47.1923  -56.6786 C.3       9 UNK        -0.1964 
     27 N          26.2067  -46.9412  -57.2712 N.am      9 UNK        -0.4231 
     28 C          26.3726  -47.1916  -58.5811 C.2       9 UNK         0.5014 
     29 O          25.5792  -46.8354  -59.4542 O.2       9 UNK        -0.5270 
     30 CA         27.6539  -47.9297  -58.9972 C.3       8 UNK         0.0284 
     31 CB         28.8368  -46.9550  -59.1081 C.3       8 UNK        -0.1977 
     32 N          27.9997  -49.0280  -58.0924 N.am      8 UNK        -0.4342 
     33 C          27.3854  -50.2200  -58.1021 C.2       8 UNK         0.5039 
     34 O          26.4653  -50.5105  -58.8681 O.2       8 UNK        -0.5547 
     35 CA         27.8848  -51.2758  -57.1017 C.3       7 UNK         0.0281 
     36 CB         29.2227  -51.8759  -57.5618 C.3       7 UNK        -0.1963 
     37 N          28.0152  -50.7541  -55.7411 N.am      7 UNK        -0.4444 
     38 C          26.9830  -50.3754  -54.9740 C.2       7 UNK         0.5104 
     39 O          25.8031  -50.4525  -55.3171 O.2       7 UNK        -0.5100 
     40 CA         27.3237  -49.8077  -53.5864 C.3       6 UNK         0.0396 
     41 CB         27.4754  -50.9400  -52.5583 C.3       6 UNK        -0.1801 
     42 N          28.5342  -48.9854  -53.5894 N.am      6 UNK        -0.4747 
     43 C          28.6521  -47.8074  -54.2188 C.2       6 UNK         0.5012 
     44 O          27.7541  -47.2871  -54.8812 O.2       6 UNK        -0.5003 
     45 CA         30.0323  -47.1287  -54.1398 C.3       5 UNK         0.0782 
     46 C46        30.3063  -46.5214  -52.7376 C.3       11 UNK        -0.0868 
     47 S47        29.1743  -45.1527  -52.2994 S.3       11 UNK        -0.2515 
     48 C48        30.1712  -43.6784  -52.6924 C.3       11 UNK         0.0199 
     49 N          31.0955  -48.0515  -54.5473 N.am      5 UNK        -0.4607 
     50 C          31.1970  -48.6110  -55.7643 C.2       4 UNK         0.5031 
     51 O          30.4264  -48.3736  -56.6928 O.2       4 UNK        -0.5119 
     52 CA         32.3128  -49.6500  -55.9810 C.3       4 UNK         0.0263 
     53 CB         33.5915  -48.9522  -56.4718 C.3       4 UNK        -0.1967 
     54 N          32.6205  -50.4423  -54.7890 N.am      4 UNK        -0.4237 
     55 C          31.7411  -51.1486  -54.0618 C.2       3 UNK         0.4908 
     56 O          30.5706  -51.3355  -54.3965 O.2       3 UNK        -0.5102 
     57 CA         32.2282  -51.6774  -52.6969 C.3       3 UNK         0.0241 
     58 CB         32.5404  -53.1794  -52.7872 C.3       3 UNK        -0.1971 
     59 N          33.3942  -50.9702  -52.1410 N.am      3 UNK        -0.4139 
     60 C          33.4737  -49.6508  -51.9065 C.2       2 UNK         0.5016 
     61 O          32.5484  -48.8673  -52.1356 O.2       2 UNK        -0.5319 
     62 CA         34.8196  -49.0901  -51.4183 C.3       2 UNK         0.0286 
     63 CB         36.0280  -50.0110  -51.7045 C.3       2 UNK        -0.1963 
     64 N          35.0003  -47.7929  -52.0645 N.am      2 UNK        -0.4790 
     65 C          35.8126  -46.8065  -51.6725 C.2       1 UNK         0.5024 
     66 O          36.5689  -46.8923  -50.7026 O.2       1 UNK        -0.4888 
     67 H67        33.1723  -42.3613  -50.6169 H         1 UNK         0.0892 
     68 H68        33.7795  -43.2047  -49.1893 H         1 UNK         0.0892 
     69 H69        34.8928  -42.3117  -50.2278 H         1 UNK         0.0892 
     70 H70        36.0961  -43.6656  -51.5184 H         1 UNK         0.3107 
     71 H71        36.8377  -45.3088  -52.7505 H         1 UNK         0.0773 
     72 H72        35.4271  -46.4101  -54.4548 H         1 UNK         0.0680 
     73 H73        33.9672  -45.8490  -53.6784 H         1 UNK         0.0680 
     74 H74        33.9322  -45.4066  -56.4518 H         1 UNK         0.0650 
     75 H75        34.1583  -43.7626  -56.9944 H         1 UNK         0.0650 
     76 H76        32.6814  -44.0407  -53.6131 H         1 UNK         0.1397 
     77 H77        28.6810  -43.3813  -54.9523 H         1 UNK         0.1363 
     78 H78        31.8127  -43.9901  -57.8163 H         1 UNK         0.1355 
     79 H79        28.4954  -44.4255  -57.5970 H         1 UNK         0.0707 
     80 H80        29.6300  -43.5593  -58.6111 H         1 UNK         0.0707 
     81 H81        27.4466  -42.9920  -59.6853 H         1 UNK         0.1034 
     82 H82        26.8077  -41.3923  -59.4462 H         1 UNK         0.1034 
     83 H83        25.1060  -42.2448  -57.8549 H         1 UNK         0.0482 
     84 H84        23.7681  -44.2734  -61.1268 H         1 UNK         0.3460 
     85 H85        24.7692  -45.0819  -59.9416 H         1 UNK         0.3460 
     86 H86        26.6048  -44.7022  -57.9248 H         1 UNK         0.2989 
     87 H87        25.3388  -46.1592  -55.5765 H         1 UNK         0.0559 
     88 H88        23.4543  -47.3125  -57.6981 H         1 UNK         0.0848 
     89 H89        23.0046  -46.7864  -56.0821 H         1 UNK         0.0848 
     90 H90        24.0466  -48.1838  -56.2841 H         1 UNK         0.0848 
     91 H91        26.9293  -47.2423  -56.6207 H         1 UNK         0.3144 
     92 H92        27.4793  -48.3464  -59.9917 H         1 UNK         0.0727 
     93 H93        29.7105  -47.4461  -59.5370 H         1 UNK         0.0790 
     94 H94        29.1280  -46.5624  -58.1342 H         1 UNK         0.0790 
     95 H95        28.5931  -46.1080  -59.7509 H         1 UNK         0.0790 
     96 H96        28.7811  -48.8702  -57.4580 H         1 UNK         0.3215 
     97 H97        27.1481  -52.0819  -57.0751 H         1 UNK         0.0863 
     98 H98        29.5777  -52.6386  -56.8683 H         1 UNK         0.0808 
     99 H99        29.9968  -51.1147  -57.6493 H         1 UNK         0.0808 
    100 H100       29.1201  -52.3476  -58.5399 H         1 UNK         0.0808 
    101 H101       28.9491  -50.7240  -55.3411 H         1 UNK         0.3118 
    102 H102       26.4910  -49.1739  -53.2739 H         1 UNK         0.0546 
    103 H103       26.5739  -51.5530  -52.5192 H         1 UNK         0.0828 
    104 H104       27.6417  -50.5467  -51.5554 H         1 UNK         0.0828 
    105 H105       28.3077  -51.6013  -52.8027 H         1 UNK         0.0828 
    106 H106       29.3456  -49.3659  -53.1233 H         1 UNK         0.3005 
    107 H107       30.0287  -46.3201  -54.8725 H         1 UNK         0.1257 
    108 H108       31.3331  -46.1573  -52.6830 H         1 UNK         0.0775 
    109 H109       30.2326  -47.2874  -51.9636 H         1 UNK         0.0775 
    110 H110       29.5726  -42.7837  -52.5157 H         1 UNK         0.0840 
    111 H111       31.0157  -43.6244  -52.0037 H         1 UNK         0.0840 
    112 H112       31.7323  -48.3438  -53.8114 H         1 UNK         0.2987 
    113 H113       31.9807  -50.3415  -56.7561 H         1 UNK         0.0785 
    114 H114       33.9911  -48.2656  -55.7244 H         1 UNK         0.0798 
    115 H115       33.3958  -48.3714  -57.3746 H         1 UNK         0.0798 
    116 H116       34.3704  -49.6745  -56.7171 H         1 UNK         0.0798 
    117 H117       33.5620  -50.3695  -54.4347 H         1 UNK         0.3079 
    118 H118       31.4035  -51.5410  -51.9944 H         1 UNK         0.0794 
    119 H119       33.3816  -53.3781  -53.4526 H         1 UNK         0.0786 
    120 H120       31.6829  -53.7342  -53.1715 H         1 UNK         0.0786 
    121 H121       32.7789  -53.5959  -51.8083 H         1 UNK         0.0786 
    122 H122       34.2061  -51.5365  -51.9403 H         1 UNK         0.3032 
    123 H123       34.7310  -48.9365  -50.3406 H         1 UNK         0.1094 
    124 H124       36.9618  -49.5535  -51.3777 H         1 UNK         0.0794 
    125 H125       35.9460  -50.9576  -51.1691 H         1 UNK         0.0794 
    126 H126       36.1271  -50.2321  -52.7680 H         1 UNK         0.0794 
    127 H127       34.3237  -47.5978  -52.7900 H         1 UNK         0.3016 
@<TRIPOS>BOND
     1    1    2 1    
     2    1   67 1    
     3    1   68 1    
     4    1   69 1    
     5    2    3 2    
     6    2    4 am   BACKBONE|DICT|INTERRES
     7    4    5 1    
     8    4   70 1    
     9    5    6 1    
    10    5   65 1    
    11    5   71 1    
    12    6    7 1    
    13    6   72 1    
    14    6   73 1    
    15    7    8 1    
    16    8    9 1    
    17    8   74 1    
    18    8   75 1    
    19    9   10 ar   
    20    9   14 ar   
    21   10   11 ar   
    22   10   76 1    
    23   11   12 ar   
    24   11   48 1    
    25   12   13 ar   
    26   12   77 1    
    27   13   14 ar   
    28   13   15 1    
    29   14   78 1    
    30   15   16 1    
    31   15   79 1    
    32   15   80 1    
    33   16   17 1    
    34   17   18 1    
    35   17   81 1    
    36   17   82 1    
    37   18   19 1    
    38   18   22 1    
    39   18   83 1    
    40   19   20 am   BACKBONE|DICT|INTERRES
    41   19   21 2    
    42   20   84 1    
    43   20   85 1    
    44   22   23 am   BACKBONE|DICT|INTERRES
    45   22   86 1    
    46   23   24 2    
    47   23   25 1    
    48   25   26 1    
    49   25   27 1    
    50   25   87 1    
    51   26   88 1    
    52   26   89 1    
    53   26   90 1    
    54   27   28 am   BACKBONE|DICT|INTERRES
    55   27   91 1    
    56   28   29 2    
    57   28   30 1    
    58   30   31 1    
    59   30   32 1    
    60   30   92 1    
    61   31   93 1    
    62   31   94 1    
    63   31   95 1    
    64   32   33 am   BACKBONE|DICT|INTERRES
    65   32   96 1    
    66   33   34 2    
    67   33   35 1    
    68   35   36 1    
    69   35   37 1    
    70   35   97 1    
    71   36   98 1    
    72   36   99 1    
    73   36  100 1    
    74   37   38 am   BACKBONE|DICT|INTERRES
    75   37  101 1    
    76   38   39 2    
    77   38   40 1    
    78   40   41 1    
    79   40   42 1    
    80   40  102 1    
    81   41  103 1    
    82   41  104 1    
    83   41  105 1    
    84   42   43 am   BACKBONE|DICT|INTERRES
    85   42  106 1    
    86   43   44 2    
    87   43   45 1    
    88   45   46 1    
    89   45   49 1    
    90   45  107 1    
    91   46   47 1    
    92   46  108 1    
    93   46  109 1    
    94   47   48 1    
    95   48  110 1    
    96   48  111 1    
    97   49   50 am   BACKBONE|DICT|INTERRES
    98   49  112 1    
    99   50   51 2    
   100   50   52 1    
   101   52   53 1    
   102   52   54 1    
   103   52  113 1    
   104   53  114 1    
   105   53  115 1    
   106   53  116 1    
   107   54   55 am   BACKBONE|DICT|INTERRES
   108   54  117 1    
   109   55   56 2    
   110   55   57 1    
   111   57   58 1    
   112   57   59 1    
   113   57  118 1    
   114   58  119 1    
   115   58  120 1    
   116   58  121 1    
   117   59   60 am   BACKBONE|DICT|INTERRES
   118   59  122 1    
   119   60   61 2    
   120   60   62 1    
   121   62   63 1    
   122   62   64 1    
   123   62  123 1    
   124   63  124 1    
   125   63  125 1    
   126   63  126 1    
   127   64   65 am   BACKBONE|DICT|INTERRES
   128   64  127 1    
   129   65   66 2    
@<TRIPOS>SUBSTRUCTURE
     1 UNK         1 GROUP             0       ****    0 ROOT    
