@<TRIPOS>MOLECULE
3R134
127   129    1
SMALL
USER_CHARGES


@<TRIPOS>ATOM
      1 CA         38.9307  -43.1094  -55.6094 C.3       0 UNK        -0.1968 
      2 C          37.5503  -43.7349  -55.7488 C.2       0 UNK         0.4852 
      3 O          37.0485  -43.8644  -56.8667 O.2       0 UNK        -0.5359 
      4 N          36.9310  -44.1157  -54.6237 N.am      1 UNK        -0.4300 
      5 CA         35.6339  -44.7944  -54.5727 C.3       1 UNK         0.0863 
      6 C6         35.0301  -44.7276  -53.1462 C.3       11 UNK        -0.0953 
      7 S7         33.2622  -45.1819  -53.1006 S.3       11 UNK        -0.2369 
      8 C8         32.4977  -43.6336  -52.5380 C.3       11 UNK         0.0226 
      9 C9         30.9890  -43.7867  -52.4341 C.ar      11 UNK        -0.0699 
     10 C10        30.4295  -44.4862  -51.3625 C.ar      11 UNK        -0.0804 
     11 C11        29.0444  -44.6399  -51.2616 C.ar      11 UNK        -0.0871 
     12 C12        28.2145  -44.0782  -52.2354 C.ar      11 UNK        -0.1008 
     13 C13        28.7623  -43.3853  -53.3208 C.ar      11 UNK        -0.0735 
     14 C14        30.1510  -43.2369  -53.4076 C.ar      11 UNK        -0.0945 
     15 C15        27.8734  -42.7701  -54.3953 C.3       11 UNK         0.0169 
     16 S16        26.5461  -43.8860  -54.9617 S.3       11 UNK        -0.2669 
     17 C17        26.2102  -43.1892  -56.6181 C.3       11 UNK        -0.0850 
     18 CA         26.5923  -44.1523  -57.7774 C.3       10 UNK         0.0855 
     19 C          26.2794  -43.5404  -59.1730 C.2       10 UNK         0.5543 
     20 N          27.1401  -43.6935  -60.1725 N.am      10 UNK        -0.7343 
     21 O          25.2313  -42.9275  -59.3608 O.2       10 UNK        -0.5027 
     22 N          27.9746  -44.6607  -57.6622 N.am      10 UNK        -0.4495 
     23 C          28.2842  -45.9163  -57.3250 C.2       10 UNK         0.4903 
     24 O          27.4474  -46.7797  -57.0553 O.2       10 UNK        -0.4860 
     25 CA         29.7742  -46.2742  -57.2423 C.3       9 UNK         0.0227 
     26 CB         30.3322  -45.9495  -55.8475 C.3       9 UNK        -0.1964 
     27 N          29.9037  -47.7081  -57.4822 N.am      9 UNK        -0.4231 
     28 C          30.0983  -48.2597  -58.6871 C.2       9 UNK         0.5014 
     29 O          30.4265  -47.6297  -59.6933 O.2       9 UNK        -0.5270 
     30 CA         29.8389  -49.7687  -58.7907 C.3       8 UNK         0.0284 
     31 CB         31.0335  -50.5725  -58.2544 C.3       8 UNK        -0.1977 
     32 N          28.6128  -50.1318  -58.0732 N.am      8 UNK        -0.4342 
     33 C          27.3844  -50.0115  -58.5959 C.2       8 UNK         0.5039 
     34 O          27.1612  -49.6519  -59.7528 O.2       8 UNK        -0.5547 
     35 CA         26.2013  -50.3283  -57.6775 C.3       7 UNK         0.0281 
     36 CB         26.4561  -51.5183  -56.7287 C.3       7 UNK        -0.1963 
     37 N          25.8753  -49.1289  -56.9172 N.am      7 UNK        -0.4444 
     38 C          24.6898  -48.8495  -56.3682 C.2       7 UNK         0.5104 
     39 O          23.6890  -49.5579  -56.4983 O.2       7 UNK        -0.5100 
     40 CA         24.6355  -47.5707  -55.5034 C.3       6 UNK         0.0396 
     41 CB         23.3401  -47.4589  -54.6734 C.3       6 UNK        -0.1801 
     42 N          25.8147  -47.4138  -54.6379 N.am      6 UNK        -0.4747 
     43 C          26.2809  -48.3030  -53.7475 C.2       6 UNK         0.5012 
     44 O          25.7336  -49.3795  -53.4941 O.2       6 UNK        -0.5003 
     45 CA         27.5531  -47.9159  -52.9673 C.3       5 UNK         0.0782 
     46 C46        27.1470  -47.4978  -51.5271 C.3       11 UNK        -0.0868 
     47 S47        28.5501  -47.2102  -50.3943 S.3       11 UNK        -0.2515 
     48 C48        28.4543  -45.4182  -50.0987 C.3       11 UNK         0.0199 
     49 N          28.5215  -49.0173  -52.9613 N.am      5 UNK        -0.4607 
     50 C          29.0943  -49.6026  -54.0206 C.2       4 UNK         0.5031 
     51 O          28.9328  -49.2557  -55.1949 O.2       4 UNK        -0.5119 
     52 CA         30.0536  -50.7579  -53.6926 C.3       4 UNK         0.0263 
     53 CB         30.0053  -51.8841  -54.7384 C.3       4 UNK        -0.1967 
     54 N          31.4208  -50.2531  -53.5714 N.am      4 UNK        -0.4237 
     55 C          31.9055  -49.6406  -52.4850 C.2       3 UNK         0.4908 
     56 O          31.2583  -49.4936  -51.4478 O.2       3 UNK        -0.5102 
     57 CA         33.3467  -49.1045  -52.5343 C.3       3 UNK         0.0241 
     58 CB         34.3514  -50.1806  -52.0783 C.3       3 UNK        -0.1971 
     59 N          33.7598  -48.4901  -53.8045 N.am      3 UNK        -0.4139 
     60 C          33.9757  -49.0548  -55.0020 C.2       2 UNK         0.5016 
     61 O          33.7294  -50.2354  -55.2513 O.2       2 UNK        -0.5319 
     62 CA         34.5485  -48.1536  -56.1180 C.3       2 UNK         0.0286 
     63 CB         33.6753  -48.2042  -57.3801 C.3       2 UNK        -0.1963 
     64 N          34.7022  -46.7529  -55.7095 N.am      2 UNK        -0.4790 
     65 C          35.7611  -46.2549  -55.0578 C.2       1 UNK         0.5024 
     66 O          36.7679  -46.9123  -54.7833 O.2       1 UNK        -0.4888 
     67 H67        38.9308  -42.1033  -56.0278 H         1 UNK         0.0892 
     68 H68        39.2458  -43.0431  -54.5681 H         1 UNK         0.0892 
     69 H69        39.6676  -43.7035  -56.1492 H         1 UNK         0.0892 
     70 H70        37.4076  -44.0140  -53.7390 H         1 UNK         0.3107 
     71 H71        34.9649  -44.2611  -55.2523 H         1 UNK         0.0773 
     72 H72        35.5761  -45.3752  -52.4571 H         1 UNK         0.0680 
     73 H73        35.1371  -43.7171  -52.7483 H         1 UNK         0.0680 
     74 H74        32.7581  -42.8295  -53.2281 H         1 UNK         0.0650 
     75 H75        32.9068  -43.3578  -51.5648 H         1 UNK         0.0650 
     76 H76        31.0753  -44.9245  -50.6136 H         1 UNK         0.1397 
     77 H77        27.1419  -44.1882  -52.1548 H         1 UNK         0.1363 
     78 H78        30.5839  -42.6962  -54.2380 H         1 UNK         0.1355 
     79 H79        27.4292  -41.8509  -54.0113 H         1 UNK         0.0707 
     80 H80        28.4849  -42.4877  -55.2536 H         1 UNK         0.0707 
     81 H81        25.1446  -42.9565  -56.6623 H         1 UNK         0.1034 
     82 H82        26.7225  -42.2329  -56.7346 H         1 UNK         0.1034 
     83 H83        25.9000  -44.9935  -57.7152 H         1 UNK         0.0482 
     84 H84        26.9234  -43.2965  -61.0734 H         1 UNK         0.3460 
     85 H85        27.9832  -44.2305  -60.0487 H         1 UNK         0.3460 
     86 H86        28.7098  -43.9991  -57.8657 H         1 UNK         0.2989 
     87 H87        30.3304  -45.7077  -57.9918 H         1 UNK         0.0559 
     88 H88        30.2895  -44.8778  -55.6571 H         1 UNK         0.0848 
     89 H89        29.7675  -46.4438  -55.0565 H         1 UNK         0.0848 
     90 H90        31.3739  -46.2532  -55.7503 H         1 UNK         0.0848 
     91 H91        29.5662  -48.3011  -56.7275 H         1 UNK         0.3144 
     92 H92        29.7177  -50.0223  -59.8464 H         1 UNK         0.0727 
     93 H93        30.8152  -51.6398  -58.2179 H         1 UNK         0.0790 
     94 H94        31.3311  -50.2491  -57.2566 H         1 UNK         0.0790 
     95 H95        31.8989  -50.4454  -58.9054 H         1 UNK         0.0790 
     96 H96        28.6963  -50.3387  -57.0854 H         1 UNK         0.3215 
     97 H97        25.3571  -50.5802  -58.3231 H         1 UNK         0.0863 
     98 H98        26.8538  -52.3787  -57.2685 H         1 UNK         0.0808 
     99 H99        27.1579  -51.2643  -55.9353 H         1 UNK         0.0808 
    100 H100       25.5306  -51.8387  -56.2500 H         1 UNK         0.0808 
    101 H101       26.6117  -48.4284  -56.8319 H         1 UNK         0.3118 
    102 H102       24.6549  -46.7310  -56.1996 H         1 UNK         0.0546 
    103 H103       22.4608  -47.4619  -55.3186 H         1 UNK         0.0828 
    104 H104       23.3161  -46.5327  -54.0995 H         1 UNK         0.0828 
    105 H105       23.2341  -48.2900  -53.9754 H         1 UNK         0.0828 
    106 H106       26.3533  -46.5746  -54.8128 H         1 UNK         0.3005 
    107 H107       28.0306  -47.0659  -53.4589 H         1 UNK         0.1257 
    108 H108       26.5337  -48.2741  -51.0641 H         1 UNK         0.0775 
    109 H109       26.5176  -46.6067  -51.5597 H         1 UNK         0.0775 
    110 H110       27.4216  -45.1215  -49.9085 H         1 UNK         0.0840 
    111 H111       29.0071  -45.1834  -49.1878 H         1 UNK         0.0840 
    112 H112       28.7916  -49.3377  -52.0417 H         1 UNK         0.2987 
    113 H113       29.7525  -51.1975  -52.7388 H         1 UNK         0.0785 
    114 H114       29.0037  -52.3093  -54.8050 H         1 UNK         0.0798 
    115 H115       30.6814  -52.6969  -54.4728 H         1 UNK         0.0798 
    116 H116       30.2806  -51.5367  -55.7305 H         1 UNK         0.0798 
    117 H117       32.0383  -50.3485  -54.3734 H         1 UNK         0.3079 
    118 H118       33.3902  -48.2947  -51.8037 H         1 UNK         0.0794 
    119 H119       34.0960  -50.5553  -51.0862 H         1 UNK         0.0786 
    120 H120       35.3634  -49.7795  -52.0224 H         1 UNK         0.0786 
    121 H121       34.3664  -51.0372  -52.7529 H         1 UNK         0.0786 
    122 H122       33.9285  -47.4948  -53.7468 H         1 UNK         0.3032 
    123 H123       35.5303  -48.5588  -56.3741 H         1 UNK         0.1094 
    124 H124       34.0814  -47.5756  -58.1728 H         1 UNK         0.0794 
    125 H125       33.6227  -49.2192  -57.7735 H         1 UNK         0.0794 
    126 H126       32.6585  -47.8730  -57.1761 H         1 UNK         0.0794 
    127 H127       33.9139  -46.1451  -55.8835 H         1 UNK         0.3016 
@<TRIPOS>BOND
     1    1    2 1    
     2    1   67 1    
     3    1   68 1    
     4    1   69 1    
     5    2    3 2    
     6    2    4 am   BACKBONE|DICT|INTERRES
     7    4    5 1    
     8    4   70 1    
     9    5    6 1    
    10    5   65 1    
    11    5   71 1    
    12    6    7 1    
    13    6   72 1    
    14    6   73 1    
    15    7    8 1    
    16    8    9 1    
    17    8   74 1    
    18    8   75 1    
    19    9   10 ar   
    20    9   14 ar   
    21   10   11 ar   
    22   10   76 1    
    23   11   12 ar   
    24   11   48 1    
    25   12   13 ar   
    26   12   77 1    
    27   13   14 ar   
    28   13   15 1    
    29   14   78 1    
    30   15   16 1    
    31   15   79 1    
    32   15   80 1    
    33   16   17 1    
    34   17   18 1    
    35   17   81 1    
    36   17   82 1    
    37   18   19 1    
    38   18   22 1    
    39   18   83 1    
    40   19   20 am   BACKBONE|DICT|INTERRES
    41   19   21 2    
    42   20   84 1    
    43   20   85 1    
    44   22   23 am   BACKBONE|DICT|INTERRES
    45   22   86 1    
    46   23   24 2    
    47   23   25 1    
    48   25   26 1    
    49   25   27 1    
    50   25   87 1    
    51   26   88 1    
    52   26   89 1    
    53   26   90 1    
    54   27   28 am   BACKBONE|DICT|INTERRES
    55   27   91 1    
    56   28   29 2    
    57   28   30 1    
    58   30   31 1    
    59   30   32 1    
    60   30   92 1    
    61   31   93 1    
    62   31   94 1    
    63   31   95 1    
    64   32   33 am   BACKBONE|DICT|INTERRES
    65   32   96 1    
    66   33   34 2    
    67   33   35 1    
    68   35   36 1    
    69   35   37 1    
    70   35   97 1    
    71   36   98 1    
    72   36   99 1    
    73   36  100 1    
    74   37   38 am   BACKBONE|DICT|INTERRES
    75   37  101 1    
    76   38   39 2    
    77   38   40 1    
    78   40   41 1    
    79   40   42 1    
    80   40  102 1    
    81   41  103 1    
    82   41  104 1    
    83   41  105 1    
    84   42   43 am   BACKBONE|DICT|INTERRES
    85   42  106 1    
    86   43   44 2    
    87   43   45 1    
    88   45   46 1    
    89   45   49 1    
    90   45  107 1    
    91   46   47 1    
    92   46  108 1    
    93   46  109 1    
    94   47   48 1    
    95   48  110 1    
    96   48  111 1    
    97   49   50 am   BACKBONE|DICT|INTERRES
    98   49  112 1    
    99   50   51 2    
   100   50   52 1    
   101   52   53 1    
   102   52   54 1    
   103   52  113 1    
   104   53  114 1    
   105   53  115 1    
   106   53  116 1    
   107   54   55 am   BACKBONE|DICT|INTERRES
   108   54  117 1    
   109   55   56 2    
   110   55   57 1    
   111   57   58 1    
   112   57   59 1    
   113   57  118 1    
   114   58  119 1    
   115   58  120 1    
   116   58  121 1    
   117   59   60 am   BACKBONE|DICT|INTERRES
   118   59  122 1    
   119   60   61 2    
   120   60   62 1    
   121   62   63 1    
   122   62   64 1    
   123   62  123 1    
   124   63  124 1    
   125   63  125 1    
   126   63  126 1    
   127   64   65 am   BACKBONE|DICT|INTERRES
   128   64  127 1    
   129   65   66 2    
@<TRIPOS>SUBSTRUCTURE
     1 UNK         1 GROUP             0       ****    0 ROOT    
