@<TRIPOS>MOLECULE
3R134
127   129    1
SMALL
USER_CHARGES


@<TRIPOS>ATOM
      1 CA         38.0361  -44.0284  -51.1952 C.3       0 UNK        -0.1968 
      2 C          37.6058  -45.0665  -52.2215 C.2       0 UNK         0.4852 
      3 O          38.4294  -45.8726  -52.6581 O.2       0 UNK        -0.5359 
      4 N          36.3257  -45.0475  -52.6137 N.am      1 UNK        -0.4300 
      5 CA         35.7241  -46.0026  -53.5490 C.3       1 UNK         0.0863 
      6 C6         34.3653  -45.5031  -54.0983 C.3       11 UNK        -0.0953 
      7 S7         34.5214  -43.9798  -55.0824 S.3       11 UNK        -0.2369 
      8 C8         33.7682  -42.7481  -53.9754 C.3       11 UNK         0.0226 
      9 C9         32.2472  -42.8258  -53.9666 C.ar      11 UNK        -0.0699 
     10 C10        31.5631  -43.3392  -52.8588 C.ar      11 UNK        -0.0804 
     11 C11        30.1643  -43.3215  -52.8155 C.ar      11 UNK        -0.0871 
     12 C12        29.4534  -42.8042  -53.9041 C.ar      11 UNK        -0.1008 
     13 C13        30.1236  -42.3126  -55.0272 C.ar      11 UNK        -0.0735 
     14 C14        31.5210  -42.3212  -55.0490 C.ar      11 UNK        -0.0945 
     15 C15        29.3385  -41.7148  -56.1881 C.3       11 UNK         0.0169 
     16 S16        29.6256  -42.5907  -57.7580 S.3       11 UNK        -0.2669 
     17 C17        28.7596  -44.1750  -57.4846 C.3       11 UNK        -0.0850 
     18 CA         27.3671  -44.2552  -58.1619 C.3       10 UNK         0.0855 
     19 C          27.4592  -44.1613  -59.7118 C.2       10 UNK         0.5543 
     20 N          26.9353  -43.0993  -60.3086 N.am      10 UNK        -0.7343 
     21 O          28.0308  -45.0301  -60.3665 O.2       10 UNK        -0.5027 
     22 N          26.6762  -45.4852  -57.7549 N.am      10 UNK        -0.4495 
     23 C          25.3802  -45.7485  -57.9773 C.2       10 UNK         0.4903 
     24 O          24.5772  -44.9173  -58.4037 O.2       10 UNK        -0.4860 
     25 CA         24.9125  -47.1865  -57.6699 C.3       9 UNK         0.0227 
     26 CB         23.5517  -47.5371  -58.3093 C.3       9 UNK        -0.1964 
     27 N          25.9389  -48.1826  -58.0021 N.am      9 UNK        -0.4231 
     28 C          26.4464  -48.4544  -59.2154 C.2       9 UNK         0.5014 
     29 O          25.9899  -48.0088  -60.2688 O.2       9 UNK        -0.5270 
     30 CA         27.6926  -49.3539  -59.2733 C.3       8 UNK         0.0284 
     31 CB         28.9177  -48.5370  -59.7232 C.3       8 UNK        -0.1977 
     32 N          27.9969  -49.9789  -57.9813 N.am      8 UNK        -0.4342 
     33 C          27.8954  -51.2903  -57.7299 C.2       8 UNK         0.5039 
     34 O          27.5108  -52.1216  -58.5537 O.2       8 UNK        -0.5547 
     35 CA         28.3011  -51.7667  -56.3266 C.3       7 UNK         0.0281 
     36 CB         29.8270  -51.9306  -56.2285 C.3       7 UNK        -0.1963 
     37 N          27.8356  -50.8960  -55.2458 N.am      7 UNK        -0.4444 
     38 C          26.5591  -50.7810  -54.8535 C.2       7 UNK         0.5104 
     39 O          25.6120  -51.3134  -55.4318 O.2       7 UNK        -0.5100 
     40 CA         26.2951  -49.9404  -53.5959 C.3       6 UNK         0.0396 
     41 CB         26.6870  -50.7240  -52.3320 C.3       6 UNK        -0.1801 
     42 N          27.0434  -48.6844  -53.6391 N.am      6 UNK        -0.4747 
     43 C          26.5053  -47.4860  -53.9018 C.2       6 UNK         0.5012 
     44 O          25.2989  -47.3038  -54.0641 O.2       6 UNK        -0.5003 
     45 CA         27.4554  -46.2727  -54.0129 C.3       5 UNK         0.0782 
     46 C46        27.4122  -45.4068  -52.7158 C.3       11 UNK        -0.0868 
     47 S47        28.8893  -45.5203  -51.6352 S.3       11 UNK        -0.2515 
     48 C48        29.4307  -43.7808  -51.5589 C.3       11 UNK         0.0199 
     49 N          28.8209  -46.6264  -54.4170 N.am      5 UNK        -0.4607 
     50 C          29.1889  -47.2471  -55.5421 C.2       4 UNK         0.5031 
     51 O          28.4133  -47.5119  -56.4603 O.2       4 UNK        -0.5119 
     52 CA         30.6552  -47.7046  -55.6315 C.3       4 UNK         0.0263 
     53 CB         31.5079  -46.6401  -56.3371 C.3       4 UNK        -0.1967 
     54 N          31.2606  -48.0495  -54.3354 N.am      4 UNK        -0.4237 
     55 C          30.7991  -48.9869  -53.4919 C.2       3 UNK         0.4908 
     56 O          29.7726  -49.6346  -53.7015 O.2       3 UNK        -0.5102 
     57 CA         31.6024  -49.2245  -52.1980 C.3       3 UNK         0.0241 
     58 CB         31.1412  -50.4861  -51.4373 C.3       3 UNK        -0.1971 
     59 N          33.0548  -49.2526  -52.4116 N.am      3 UNK        -0.4139 
     60 C          33.7540  -50.0643  -53.2200 C.2       2 UNK         0.5016 
     61 O          33.2489  -50.9401  -53.9242 O.2       2 UNK        -0.5319 
     62 CA         35.2775  -49.8201  -53.2666 C.3       2 UNK         0.0286 
     63 CB         36.0078  -50.7950  -54.2098 C.3       2 UNK        -0.1963 
     64 N          35.5870  -48.4455  -53.6752 N.am      2 UNK        -0.4790 
     65 C          35.5250  -47.3728  -52.8760 C.2       1 UNK         0.5024 
     66 O          35.2308  -47.4366  -51.6791 O.2       1 UNK        -0.4888 
     67 H67        38.4042  -44.5209  -50.2956 H         1 UNK         0.0892 
     68 H68        38.8385  -43.4116  -51.5992 H         1 UNK         0.0892 
     69 H69        37.2148  -43.3712  -50.9098 H         1 UNK         0.0892 
     70 H70        35.6906  -44.3832  -52.1981 H         1 UNK         0.3107 
     71 H71        36.4114  -46.1321  -54.3884 H         1 UNK         0.0773 
     72 H72        33.9293  -46.2542  -54.7566 H         1 UNK         0.0680 
     73 H73        33.6466  -45.3551  -53.2905 H         1 UNK         0.0680 
     74 H74        34.1711  -42.8623  -52.9684 H         1 UNK         0.0650 
     75 H75        34.0703  -41.7543  -54.3088 H         1 UNK         0.0650 
     76 H76        32.1197  -43.7156  -52.0114 H         1 UNK         0.1397 
     77 H77        28.3758  -42.7494  -53.8708 H         1 UNK         0.1363 
     78 H78        32.0452  -41.9184  -55.9052 H         1 UNK         0.1355 
     79 H79        28.2679  -41.7037  -55.9776 H         1 UNK         0.0707 
     80 H80        29.6363  -40.6726  -56.3110 H         1 UNK         0.0707 
     81 H81        29.3989  -44.9761  -57.8561 H         1 UNK         0.1034 
     82 H82        28.6647  -44.3420  -56.4114 H         1 UNK         0.1034 
     83 H83        26.7726  -43.4164  -57.7936 H         1 UNK         0.0482 
     84 H84        26.9987  -43.0187  -61.3112 H         1 UNK         0.3460 
     85 H85        26.4698  -42.3815  -59.7757 H         1 UNK         0.3460 
     86 H86        27.2688  -46.2420  -57.4293 H         1 UNK         0.2989 
     87 H87        24.7804  -47.2367  -56.5905 H         1 UNK         0.0559 
     88 H88        22.7651  -46.8825  -57.9323 H         1 UNK         0.0848 
     89 H89        23.2573  -48.5610  -58.0795 H         1 UNK         0.0848 
     90 H90        23.5693  -47.4272  -59.3938 H         1 UNK         0.0848 
     91 H91        26.4082  -48.5973  -57.2099 H         1 UNK         0.3144 
     92 H92        27.4988  -50.1143  -60.0325 H         1 UNK         0.0727 
     93 H93        29.1422  -47.7243  -59.0316 H         1 UNK         0.0790 
     94 H94        28.7487  -48.0867  -60.7025 H         1 UNK         0.0790 
     95 H95        29.8054  -49.1643  -59.8045 H         1 UNK         0.0790 
     96 H96        28.3149  -49.3529  -57.2487 H         1 UNK         0.3215 
     97 H97        27.8503  -52.7500  -56.1743 H         1 UNK         0.0863 
     98 H98        30.1205  -52.3463  -55.2641 H         1 UNK         0.0808 
     99 H99        30.3477  -50.9810  -56.3508 H         1 UNK         0.0808 
    100 H100       30.1977  -52.6077  -56.9993 H         1 UNK         0.0808 
    101 H101       28.5570  -50.4405  -54.6871 H         1 UNK         0.3118 
    102 H102       25.2217  -49.7464  -53.5448 H         1 UNK         0.0546 
    103 H103       27.7510  -50.9626  -52.3117 H         1 UNK         0.0828 
    104 H104       26.1404  -51.6661  -52.2723 H         1 UNK         0.0828 
    105 H105       26.4555  -50.1578  -51.4299 H         1 UNK         0.0828 
    106 H106       28.0513  -48.7598  -53.5414 H         1 UNK         0.3005 
    107 H107       27.0450  -45.6670  -54.8236 H         1 UNK         0.1257 
    108 H108       27.2492  -44.3677  -52.9915 H         1 UNK         0.0775 
    109 H109       26.5438  -45.6423  -52.0964 H         1 UNK         0.0775 
    110 H110       28.5712  -43.1363  -51.3675 H         1 UNK         0.0840 
    111 H111       30.0820  -43.6642  -50.6914 H         1 UNK         0.0840 
    112 H112       29.5259  -46.4389  -53.7178 H         1 UNK         0.2987 
    113 H113       30.6712  -48.6070  -56.2447 H         1 UNK         0.0785 
    114 H114       31.1116  -46.4190  -57.3280 H         1 UNK         0.0798 
    115 H115       32.5307  -46.9855  -56.4846 H         1 UNK         0.0798 
    116 H116       31.5396  -45.7031  -55.7779 H         1 UNK         0.0798 
    117 H117       32.1074  -47.5625  -54.0866 H         1 UNK         0.3079 
    118 H118       31.4019  -48.3639  -51.5580 H         1 UNK         0.0794 
    119 H119       31.7059  -50.6228  -50.5151 H         1 UNK         0.0786 
    120 H120       31.2595  -51.3872  -52.0404 H         1 UNK         0.0786 
    121 H121       30.0880  -50.4149  -51.1627 H         1 UNK         0.0786 
    122 H122       33.5921  -48.5620  -51.8951 H         1 UNK         0.3032 
    123 H123       35.6600  -49.9881  -52.2567 H         1 UNK         0.1094 
    124 H124       35.6726  -50.6879  -55.2422 H         1 UNK         0.0794 
    125 H125       37.0860  -50.6354  -54.1881 H         1 UNK         0.0794 
    126 H126       35.8304  -51.8303  -53.9150 H         1 UNK         0.0794 
    127 H127       35.7976  -48.3101  -54.6544 H         1 UNK         0.3016 
@<TRIPOS>BOND
     1    1    2 1    
     2    1   67 1    
     3    1   68 1    
     4    1   69 1    
     5    2    3 2    
     6    2    4 am   BACKBONE|DICT|INTERRES
     7    4    5 1    
     8    4   70 1    
     9    5    6 1    
    10    5   65 1    
    11    5   71 1    
    12    6    7 1    
    13    6   72 1    
    14    6   73 1    
    15    7    8 1    
    16    8    9 1    
    17    8   74 1    
    18    8   75 1    
    19    9   10 ar   
    20    9   14 ar   
    21   10   11 ar   
    22   10   76 1    
    23   11   12 ar   
    24   11   48 1    
    25   12   13 ar   
    26   12   77 1    
    27   13   14 ar   
    28   13   15 1    
    29   14   78 1    
    30   15   16 1    
    31   15   79 1    
    32   15   80 1    
    33   16   17 1    
    34   17   18 1    
    35   17   81 1    
    36   17   82 1    
    37   18   19 1    
    38   18   22 1    
    39   18   83 1    
    40   19   20 am   BACKBONE|DICT|INTERRES
    41   19   21 2    
    42   20   84 1    
    43   20   85 1    
    44   22   23 am   BACKBONE|DICT|INTERRES
    45   22   86 1    
    46   23   24 2    
    47   23   25 1    
    48   25   26 1    
    49   25   27 1    
    50   25   87 1    
    51   26   88 1    
    52   26   89 1    
    53   26   90 1    
    54   27   28 am   BACKBONE|DICT|INTERRES
    55   27   91 1    
    56   28   29 2    
    57   28   30 1    
    58   30   31 1    
    59   30   32 1    
    60   30   92 1    
    61   31   93 1    
    62   31   94 1    
    63   31   95 1    
    64   32   33 am   BACKBONE|DICT|INTERRES
    65   32   96 1    
    66   33   34 2    
    67   33   35 1    
    68   35   36 1    
    69   35   37 1    
    70   35   97 1    
    71   36   98 1    
    72   36   99 1    
    73   36  100 1    
    74   37   38 am   BACKBONE|DICT|INTERRES
    75   37  101 1    
    76   38   39 2    
    77   38   40 1    
    78   40   41 1    
    79   40   42 1    
    80   40  102 1    
    81   41  103 1    
    82   41  104 1    
    83   41  105 1    
    84   42   43 am   BACKBONE|DICT|INTERRES
    85   42  106 1    
    86   43   44 2    
    87   43   45 1    
    88   45   46 1    
    89   45   49 1    
    90   45  107 1    
    91   46   47 1    
    92   46  108 1    
    93   46  109 1    
    94   47   48 1    
    95   48  110 1    
    96   48  111 1    
    97   49   50 am   BACKBONE|DICT|INTERRES
    98   49  112 1    
    99   50   51 2    
   100   50   52 1    
   101   52   53 1    
   102   52   54 1    
   103   52  113 1    
   104   53  114 1    
   105   53  115 1    
   106   53  116 1    
   107   54   55 am   BACKBONE|DICT|INTERRES
   108   54  117 1    
   109   55   56 2    
   110   55   57 1    
   111   57   58 1    
   112   57   59 1    
   113   57  118 1    
   114   58  119 1    
   115   58  120 1    
   116   58  121 1    
   117   59   60 am   BACKBONE|DICT|INTERRES
   118   59  122 1    
   119   60   61 2    
   120   60   62 1    
   121   62   63 1    
   122   62   64 1    
   123   62  123 1    
   124   63  124 1    
   125   63  125 1    
   126   63  126 1    
   127   64   65 am   BACKBONE|DICT|INTERRES
   128   64  127 1    
   129   65   66 2    
@<TRIPOS>SUBSTRUCTURE
     1 UNK         1 GROUP             0       ****    0 ROOT    
