@<TRIPOS>MOLECULE
3R134
127   129    1
SMALL
USER_CHARGES


@<TRIPOS>ATOM
      1 CA         38.0944  -44.5851  -51.2625 C.3       0 UNK        -0.1968 
      2 C          36.7588  -45.1934  -51.6639 C.2       0 UNK         0.4852 
      3 O          35.7768  -45.0333  -50.9365 O.2       0 UNK        -0.5359 
      4 N          36.7237  -45.8900  -52.8100 N.am      1 UNK        -0.4300 
      5 CA         35.5763  -46.5743  -53.4257 C.3       1 UNK         0.0863 
      6 C6         34.3760  -45.6457  -53.7506 C.3       11 UNK        -0.0953 
      7 S7         34.7457  -44.4327  -55.0634 S.3       11 UNK        -0.2369 
      8 C8         33.3857  -44.7225  -56.2530 C.3       11 UNK         0.0226 
      9 C9         32.0911  -43.9774  -55.9220 C.ar      11 UNK        -0.0699 
     10 C10        31.5762  -43.9526  -54.6224 C.ar      11 UNK        -0.0804 
     11 C11        30.3699  -43.3135  -54.3352 C.ar      11 UNK        -0.0871 
     12 C12        29.6775  -42.6624  -55.3585 C.ar      11 UNK        -0.1008 
     13 C13        30.1755  -42.6713  -56.6648 C.ar      11 UNK        -0.0735 
     14 C14        31.3767  -43.3357  -56.9402 C.ar      11 UNK        -0.0945 
     15 C15        29.4264  -41.9552  -57.7789 C.3       11 UNK         0.0169 
     16 S16        28.0832  -42.9798  -58.4540 S.3       11 UNK        -0.2669 
     17 C17        26.6378  -42.3369  -57.5364 C.3       11 UNK        -0.0850 
     18 CA         25.3251  -43.1164  -57.8104 C.3       10 UNK         0.0855 
     19 C          24.8206  -42.9270  -59.2738 C.2       10 UNK         0.5543 
     20 N          24.7751  -43.9611  -60.1071 N.am      10 UNK        -0.7343 
     21 O          24.4517  -41.8180  -59.6528 O.2       10 UNK        -0.5027 
     22 N          25.4341  -44.5120  -57.3660 N.am      10 UNK        -0.4495 
     23 C          24.4017  -45.3415  -57.1671 C.2       10 UNK         0.4903 
     24 O          23.2239  -44.9806  -57.1935 O.2       10 UNK        -0.4860 
     25 CA         24.7420  -46.8221  -56.8988 C.3       9 UNK         0.0227 
     26 CB         23.6382  -47.7813  -57.3907 C.3       9 UNK        -0.1964 
     27 N          26.0513  -47.2369  -57.4205 N.am      9 UNK        -0.4231 
     28 C          26.4744  -47.2071  -58.6945 C.2       9 UNK         0.5014 
     29 O          25.8035  -46.7759  -59.6340 O.2       9 UNK        -0.5270 
     30 CA         27.8978  -47.7223  -58.9631 C.3       8 UNK         0.0284 
     31 CB         28.9215  -46.5899  -58.7839 C.3       8 UNK        -0.1977 
     32 N          28.2635  -48.8578  -58.1117 N.am      8 UNK        -0.4342 
     33 C          27.7599  -50.0937  -58.2506 C.2       8 UNK         0.5039 
     34 O          26.9673  -50.4150  -59.1372 O.2       8 UNK        -0.5547 
     35 CA         28.2096  -51.1536  -57.2301 C.3       7 UNK         0.0281 
     36 CB         29.6183  -51.6681  -57.5645 C.3       7 UNK        -0.1963 
     37 N          28.1675  -50.6635  -55.8504 N.am      7 UNK        -0.4444 
     38 C          27.0397  -50.3549  -55.1931 C.2       7 UNK         0.5104 
     39 O          25.9093  -50.5001  -55.6582 O.2       7 UNK        -0.5100 
     40 CA         27.1970  -49.7620  -53.7828 C.3       6 UNK         0.0396 
     41 CB         27.3087  -50.8751  -52.7290 C.3       6 UNK        -0.1801 
     42 N          28.3453  -48.8601  -53.6738 N.am      6 UNK        -0.4747 
     43 C          28.4409  -47.6768  -54.2990 C.2       6 UNK         0.5012 
     44 O          27.5647  -47.2172  -55.0305 O.2       6 UNK        -0.5003 
     45 CA         29.7655  -46.9097  -54.1210 C.3       5 UNK         0.0782 
     46 C46        29.8261  -46.1862  -52.7504 C.3       11 UNK        -0.0868 
     47 S47        28.6979  -44.7497  -52.6566 S.3       11 UNK        -0.2515 
     48 C48        29.8195  -43.3382  -52.9174 C.3       11 UNK         0.0199 
     49 N          30.9159  -47.7973  -54.3299 N.am      5 UNK        -0.4607 
     50 C          31.1979  -48.3933  -55.5014 C.2       4 UNK         0.5031 
     51 O          30.5720  -48.1793  -56.5377 O.2       4 UNK        -0.5119 
     52 CA         32.3154  -49.4527  -55.5290 C.3       4 UNK         0.0263 
     53 CB         33.6229  -48.8617  -56.0749 C.3       4 UNK        -0.1967 
     54 N          32.5394  -50.0951  -54.2314 N.am      4 UNK        -0.4237 
     55 C          31.6223  -50.8615  -53.6179 C.2       3 UNK         0.4908 
     56 O          30.5398  -51.1535  -54.1282 O.2       3 UNK        -0.5102 
     57 CA         31.9205  -51.3487  -52.1872 C.3       3 UNK         0.0241 
     58 CB         32.3776  -52.8157  -52.2080 C.3       3 UNK        -0.1971 
     59 N          32.9078  -50.5451  -51.4589 N.am      3 UNK        -0.4139 
     60 C          32.8069  -49.2359  -51.1875 C.2       2 UNK         0.5016 
     61 O          31.8457  -48.5408  -51.5243 O.2       2 UNK        -0.5319 
     62 CA         34.0093  -48.5642  -50.4932 C.3       2 UNK         0.0286 
     63 CB         35.0585  -49.5525  -49.9343 C.3       2 UNK        -0.1963 
     64 N          34.6518  -47.5916  -51.3849 N.am      2 UNK        -0.4790 
     65 C          35.1064  -47.8071  -52.6277 C.2       1 UNK         0.5024 
     66 O          35.1278  -48.9156  -53.1660 O.2       1 UNK        -0.4888 
     67 H67        38.8768  -44.7976  -51.9908 H         1 UNK         0.0892 
     68 H68        38.0005  -43.5032  -51.1725 H         1 UNK         0.0892 
     69 H69        38.4118  -44.9811  -50.2983 H         1 UNK         0.0892 
     70 H70        37.5844  -45.9841  -53.3313 H         1 UNK         0.3107 
     71 H71        35.9516  -46.9629  -54.3741 H         1 UNK         0.0773 
     72 H72        34.0543  -45.1013  -52.8625 H         1 UNK         0.0680 
     73 H73        33.5130  -46.2379  -54.0586 H         1 UNK         0.0680 
     74 H74        33.1758  -45.7894  -56.3320 H         1 UNK         0.0650 
     75 H75        33.7455  -44.4141  -57.2356 H         1 UNK         0.0650 
     76 H76        32.1000  -44.4422  -53.8205 H         1 UNK         0.1397 
     77 H77        28.7489  -42.1556  -55.1374 H         1 UNK         0.1363 
     78 H78        31.7550  -43.3525  -57.9533 H         1 UNK         0.1355 
     79 H79        29.0335  -41.0033  -57.4184 H         1 UNK         0.0707 
     80 H80        30.1130  -41.7078  -58.5900 H         1 UNK         0.0707 
     81 H81        26.8562  -42.3688  -56.4689 H         1 UNK         0.1034 
     82 H82        26.5081  -41.2804  -57.7796 H         1 UNK         0.1034 
     83 H83        24.5581  -42.6565  -57.1841 H         1 UNK         0.0482 
     84 H84        24.4419  -43.8215  -61.0473 H         1 UNK         0.3460 
     85 H85        25.0923  -44.8797  -59.8162 H         1 UNK         0.3460 
     86 H86        26.3688  -44.8917  -57.3385 H         1 UNK         0.2989 
     87 H87        24.8078  -46.9238  -55.8148 H         1 UNK         0.0559 
     88 H88        23.4744  -47.6915  -58.4650 H         1 UNK         0.0848 
     89 H89        22.6877  -47.5744  -56.8976 H         1 UNK         0.0848 
     90 H90        23.8934  -48.8194  -57.1757 H         1 UNK         0.0848 
     91 H91        26.7155  -47.5173  -56.7024 H         1 UNK         0.3144 
     92 H92        27.9395  -48.0523  -60.0033 H         1 UNK         0.0727 
     93 H93        28.9227  -46.1986  -57.7652 H         1 UNK         0.0790 
     94 H94        28.7016  -45.7590  -59.4549 H         1 UNK         0.0790 
     95 H95        29.9324  -46.9283  -59.0113 H         1 UNK         0.0790 
     96 H96        28.9665  -48.6818  -57.3965 H         1 UNK         0.3215 
     97 H97        27.5191  -51.9973  -57.2984 H         1 UNK         0.0863 
     98 H98        29.9739  -52.3805  -56.8196 H         1 UNK         0.0808 
     99 H99        30.3398  -50.8546  -57.6281 H         1 UNK         0.0808 
    100 H100       29.6232  -52.1763  -58.5296 H         1 UNK         0.0808 
    101 H101       29.0494  -50.5887  -55.3522 H         1 UNK         0.3118 
    102 H102       26.2973  -49.1820  -53.5662 H         1 UNK         0.0546 
    103 H103       26.4407  -51.5346  -52.7685 H         1 UNK         0.0828 
    104 H104       27.3559  -50.4645  -51.7204 H         1 UNK         0.0828 
    105 H105       28.1928  -51.4946  -52.8816 H         1 UNK         0.0828 
    106 H106       29.1336  -49.1875  -53.1334 H         1 UNK         0.3005 
    107 H107       29.8014  -46.1552  -54.9107 H         1 UNK         0.1257 
    108 H108       30.8420  -45.8526  -52.5392 H         1 UNK         0.0775 
    109 H109       29.5811  -46.8720  -51.9370 H         1 UNK         0.0775 
    110 H110       29.2745  -42.4143  -52.7174 H         1 UNK         0.0840 
    111 H111       30.6309  -43.3734  -52.1885 H         1 UNK         0.0840 
    112 H112       31.4341  -48.0612  -53.4984 H         1 UNK         0.2987 
    113 H113       32.0037  -50.2361  -56.2202 H         1 UNK         0.0785 
    114 H114       33.4814  -48.4790  -57.0867 H         1 UNK         0.0798 
    115 H115       34.4118  -49.6128  -56.1199 H         1 UNK         0.0798 
    116 H116       33.9813  -48.0353  -55.4667 H         1 UNK         0.0798 
    117 H117       33.4116  -49.8843  -53.7567 H         1 UNK         0.3079 
    118 H118       30.9824  -51.2907  -51.6313 H         1 UNK         0.0794 
    119 H119       33.3299  -52.9344  -52.7265 H         1 UNK         0.0786 
    120 H120       31.6475  -53.4452  -52.7193 H         1 UNK         0.0786 
    121 H121       32.4914  -53.2115  -51.1986 H         1 UNK         0.0786 
    122 H122       33.7538  -51.0189  -51.1769 H         1 UNK         0.3032 
    123 H123       33.5980  -48.0018  -49.6532 H         1 UNK         0.1094 
    124 H124       35.8354  -49.0204  -49.3850 H         1 UNK         0.0794 
    125 H125       34.6059  -50.2581  -49.2361 H         1 UNK         0.0794 
    126 H126       35.5525  -50.1261  -50.7194 H         1 UNK         0.0794 
    127 H127       34.7261  -46.6383  -51.0362 H         1 UNK         0.3016 
@<TRIPOS>BOND
     1    1    2 1    
     2    1   67 1    
     3    1   68 1    
     4    1   69 1    
     5    2    3 2    
     6    2    4 am   BACKBONE|DICT|INTERRES
     7    4    5 1    
     8    4   70 1    
     9    5    6 1    
    10    5   65 1    
    11    5   71 1    
    12    6    7 1    
    13    6   72 1    
    14    6   73 1    
    15    7    8 1    
    16    8    9 1    
    17    8   74 1    
    18    8   75 1    
    19    9   10 ar   
    20    9   14 ar   
    21   10   11 ar   
    22   10   76 1    
    23   11   12 ar   
    24   11   48 1    
    25   12   13 ar   
    26   12   77 1    
    27   13   14 ar   
    28   13   15 1    
    29   14   78 1    
    30   15   16 1    
    31   15   79 1    
    32   15   80 1    
    33   16   17 1    
    34   17   18 1    
    35   17   81 1    
    36   17   82 1    
    37   18   19 1    
    38   18   22 1    
    39   18   83 1    
    40   19   20 am   BACKBONE|DICT|INTERRES
    41   19   21 2    
    42   20   84 1    
    43   20   85 1    
    44   22   23 am   BACKBONE|DICT|INTERRES
    45   22   86 1    
    46   23   24 2    
    47   23   25 1    
    48   25   26 1    
    49   25   27 1    
    50   25   87 1    
    51   26   88 1    
    52   26   89 1    
    53   26   90 1    
    54   27   28 am   BACKBONE|DICT|INTERRES
    55   27   91 1    
    56   28   29 2    
    57   28   30 1    
    58   30   31 1    
    59   30   32 1    
    60   30   92 1    
    61   31   93 1    
    62   31   94 1    
    63   31   95 1    
    64   32   33 am   BACKBONE|DICT|INTERRES
    65   32   96 1    
    66   33   34 2    
    67   33   35 1    
    68   35   36 1    
    69   35   37 1    
    70   35   97 1    
    71   36   98 1    
    72   36   99 1    
    73   36  100 1    
    74   37   38 am   BACKBONE|DICT|INTERRES
    75   37  101 1    
    76   38   39 2    
    77   38   40 1    
    78   40   41 1    
    79   40   42 1    
    80   40  102 1    
    81   41  103 1    
    82   41  104 1    
    83   41  105 1    
    84   42   43 am   BACKBONE|DICT|INTERRES
    85   42  106 1    
    86   43   44 2    
    87   43   45 1    
    88   45   46 1    
    89   45   49 1    
    90   45  107 1    
    91   46   47 1    
    92   46  108 1    
    93   46  109 1    
    94   47   48 1    
    95   48  110 1    
    96   48  111 1    
    97   49   50 am   BACKBONE|DICT|INTERRES
    98   49  112 1    
    99   50   51 2    
   100   50   52 1    
   101   52   53 1    
   102   52   54 1    
   103   52  113 1    
   104   53  114 1    
   105   53  115 1    
   106   53  116 1    
   107   54   55 am   BACKBONE|DICT|INTERRES
   108   54  117 1    
   109   55   56 2    
   110   55   57 1    
   111   57   58 1    
   112   57   59 1    
   113   57  118 1    
   114   58  119 1    
   115   58  120 1    
   116   58  121 1    
   117   59   60 am   BACKBONE|DICT|INTERRES
   118   59  122 1    
   119   60   61 2    
   120   60   62 1    
   121   62   63 1    
   122   62   64 1    
   123   62  123 1    
   124   63  124 1    
   125   63  125 1    
   126   63  126 1    
   127   64   65 am   BACKBONE|DICT|INTERRES
   128   64  127 1    
   129   65   66 2    
@<TRIPOS>SUBSTRUCTURE
     1 UNK         1 GROUP             0       ****    0 ROOT    
