@<TRIPOS>MOLECULE
3R134
127   129    1
SMALL
USER_CHARGES


@<TRIPOS>ATOM
      1 CA         30.2780  -45.2603  -53.0063 C.3       0 UNK        -0.1968 
      2 C          31.5784  -45.4898  -52.2485 C.2       0 UNK         0.4852 
      3 O          31.6360  -46.3591  -51.3775 O.2       0 UNK        -0.5359 
      4 N          32.6151  -44.7059  -52.5729 N.am      1 UNK        -0.4300 
      5 CA         33.8585  -44.5630  -51.8035 C.3       1 UNK         0.0863 
      6 C6         34.7833  -43.4634  -52.3824 C.3       11 UNK        -0.0953 
      7 S7         33.9464  -41.8510  -52.5691 S.3       11 UNK        -0.2369 
      8 C8         34.0822  -41.5534  -54.3610 C.3       11 UNK         0.0226 
      9 C9         33.1204  -42.4172  -55.1652 C.ar      11 UNK        -0.0699 
     10 C10        33.5556  -43.6155  -55.7381 C.ar      11 UNK        -0.0804 
     11 C11        32.6766  -44.4010  -56.4869 C.ar      11 UNK        -0.0871 
     12 C12        31.3621  -43.9702  -56.6799 C.ar      11 UNK        -0.1008 
     13 C13        30.9090  -42.7681  -56.1212 C.ar      11 UNK        -0.0735 
     14 C14        31.7981  -42.0034  -55.3577 C.ar      11 UNK        -0.0945 
     15 C15        29.4715  -42.2700  -56.2928 C.3       11 UNK         0.0169 
     16 S16        28.5304  -43.0594  -57.6467 S.3       11 UNK        -0.2669 
     17 C17        26.9194  -42.2161  -57.5005 C.3       11 UNK        -0.0850 
     18 CA         26.0145  -42.8012  -56.3846 C.3       10 UNK         0.0855 
     19 C          24.6543  -42.0514  -56.3442 C.2       10 UNK         0.5543 
     20 N          24.5524  -40.9944  -55.5502 N.am      10 UNK        -0.7343 
     21 O          23.7129  -42.3887  -57.0595 O.2       10 UNK        -0.5027 
     22 N          25.8686  -44.2588  -56.5090 N.am      10 UNK        -0.4495 
     23 C          25.2895  -45.0595  -55.6076 C.2       10 UNK         0.4903 
     24 O          24.8219  -44.6540  -54.5425 O.2       10 UNK        -0.4860 
     25 CA         25.2607  -46.5740  -55.8910 C.3       9 UNK         0.0227 
     26 CB         23.8159  -47.1141  -55.9189 C.3       9 UNK        -0.1964 
     27 N          26.0242  -47.0200  -57.0670 N.am      9 UNK        -0.4231 
     28 C          25.7418  -46.8518  -58.3688 C.2       9 UNK         0.5014 
     29 O          24.7981  -46.1862  -58.7937 O.2       9 UNK        -0.5270 
     30 CA         26.6776  -47.5509  -59.3681 C.3       8 UNK         0.0284 
     31 CB         27.9194  -46.6840  -59.6407 C.3       8 UNK        -0.1977 
     32 N          27.0903  -48.8660  -58.8694 N.am      8 UNK        -0.4342 
     33 C          26.4199  -50.0091  -59.0774 C.2       8 UNK         0.5039 
     34 O          25.4463  -50.1048  -59.8256 O.2       8 UNK        -0.5547 
     35 CA         26.9037  -51.2601  -58.3142 C.3       7 UNK         0.0281 
     36 CB         27.9738  -52.0074  -59.1260 C.3       7 UNK        -0.1963 
     37 N          27.4345  -50.9541  -56.9829 N.am      7 UNK        -0.4444 
     38 C          26.7108  -50.4595  -55.9670 C.2       7 UNK         0.5104 
     39 O          25.4847  -50.3613  -55.9908 O.2       7 UNK        -0.5100 
     40 CA         27.4764  -49.9464  -54.7285 C.3       6 UNK         0.0396 
     41 CB         27.3525  -50.9509  -53.5728 C.3       6 UNK        -0.1801 
     42 N          28.8965  -49.6453  -54.9585 N.am      6 UNK        -0.4747 
     43 C          29.3826  -48.7968  -55.8807 C.2       6 UNK         0.5012 
     44 O          28.6557  -48.1109  -56.5995 O.2       6 UNK        -0.5003 
     45 CA         30.9142  -48.7043  -56.0748 C.3       5 UNK         0.0782 
     46 C46        31.4122  -47.3428  -55.5473 C.3       11 UNK        -0.0868 
     47 S47        33.1837  -47.0465  -55.8562 S.3       11 UNK        -0.2515 
     48 C48        33.1470  -45.7142  -57.0939 C.3       11 UNK         0.0199 
     49 N          31.6585  -49.7957  -55.4455 N.am      5 UNK        -0.4607 
     50 C          31.5398  -51.1111  -55.6608 C.2       4 UNK         0.5031 
     51 O          30.8328  -51.6024  -56.5410 O.2       4 UNK        -0.5119 
     52 CA         32.2903  -52.0227  -54.6686 C.3       4 UNK         0.0263 
     53 CB         33.5871  -52.5503  -55.3014 C.3       4 UNK        -0.1967 
     54 N          32.6123  -51.3551  -53.3967 N.am      4 UNK        -0.4237 
     55 C          31.7263  -50.8460  -52.5280 C.2       3 UNK         0.4908 
     56 O          30.5089  -50.9707  -52.6579 O.2       3 UNK        -0.5102 
     57 CA         32.2705  -49.9865  -51.3709 C.3       3 UNK         0.0241 
     58 CB         32.7377  -50.8643  -50.1936 C.3       3 UNK        -0.1971 
     59 N          33.2956  -49.0035  -51.7670 N.am      3 UNK        -0.4139 
     60 C          34.5441  -49.2294  -52.2095 C.2       2 UNK         0.5016 
     61 O          35.0127  -50.3590  -52.3607 O.2       2 UNK        -0.5319 
     62 CA         35.4134  -48.0159  -52.5874 C.3       2 UNK         0.0286 
     63 CB         36.0989  -48.2269  -53.9498 C.3       2 UNK        -0.1963 
     64 N          34.6646  -46.7528  -52.6122 N.am      2 UNK        -0.4790 
     65 C          34.6543  -45.8697  -51.6031 C.2       1 UNK         0.5024 
     66 O          35.2458  -46.0493  -50.5377 O.2       1 UNK        -0.4888 
     67 H67        30.4594  -44.8645  -54.0049 H         1 UNK         0.0892 
     68 H68        29.6553  -44.5477  -52.4662 H         1 UNK         0.0892 
     69 H69        29.7164  -46.1891  -53.1025 H         1 UNK         0.0892 
     70 H70        32.5048  -44.0317  -53.3187 H         1 UNK         0.3107 
     71 H71        33.5543  -44.2391  -50.8058 H         1 UNK         0.0773 
     72 H72        35.2019  -43.7769  -53.3393 H         1 UNK         0.0680 
     73 H73        35.6388  -43.3065  -51.7223 H         1 UNK         0.0680 
     74 H74        33.8713  -40.5006  -54.5545 H         1 UNK         0.0650 
     75 H75        35.1116  -41.7172  -54.6836 H         1 UNK         0.0650 
     76 H76        34.5775  -43.9420  -55.6023 H         1 UNK         0.1397 
     77 H77        30.6955  -44.5871  -57.2647 H         1 UNK         0.1363 
     78 H78        31.4619  -41.0757  -54.9142 H         1 UNK         0.1355 
     79 H79        29.4835  -41.1929  -56.4666 H         1 UNK         0.0707 
     80 H80        28.9412  -42.4319  -55.3538 H         1 UNK         0.0707 
     81 H81        26.4191  -42.2906  -58.4682 H         1 UNK         0.1034 
     82 H82        27.0931  -41.1508  -57.3360 H         1 UNK         0.1034 
     83 H83        26.5122  -42.6261  -55.4290 H         1 UNK         0.0482 
     84 H84        25.3207  -40.7029  -54.9659 H         1 UNK         0.3460 
     85 H85        23.6832  -40.4842  -55.5234 H         1 UNK         0.3460 
     86 H86        26.2024  -44.6669  -57.3688 H         1 UNK         0.2989 
     87 H87        25.7595  -47.0376  -55.0394 H         1 UNK         0.0559 
     88 H88        23.7967  -48.1923  -56.0764 H         1 UNK         0.0848 
     89 H89        23.2221  -46.6486  -56.7059 H         1 UNK         0.0848 
     90 H90        23.3075  -46.9173  -54.9742 H         1 UNK         0.0848 
     91 H91        26.8938  -47.5004  -56.8493 H         1 UNK         0.3144 
     92 H92        26.1373  -47.6718  -60.3096 H         1 UNK         0.0727 
     93 H93        28.5789  -47.1557  -60.3692 H         1 UNK         0.0790 
     94 H94        28.4991  -46.4978  -58.7358 H         1 UNK         0.0790 
     95 H95        27.6331  -45.7121  -60.0453 H         1 UNK         0.0790 
     96 H96        27.8509  -48.8657  -58.1981 H         1 UNK         0.3215 
     97 H97        26.0438  -51.9218  -58.1882 H         1 UNK         0.0863 
     98 H98        28.2649  -52.9375  -58.6373 H         1 UNK         0.0808 
     99 H99        28.8731  -51.4051  -59.2618 H         1 UNK         0.0808 
    100 H100       27.6008  -52.2664  -60.1180 H         1 UNK         0.0808 
    101 H101       28.4345  -51.0434  -56.8556 H         1 UNK         0.3118 
    102 H102       26.9964  -49.0166  -54.4195 H         1 UNK         0.0546 
    103 H103       26.3082  -51.1952  -53.3731 H         1 UNK         0.0828 
    104 H104       27.7691  -50.5465  -52.6502 H         1 UNK         0.0828 
    105 H105       27.8714  -51.8846  -53.7934 H         1 UNK         0.0828 
    106 H106       29.5542  -50.1523  -54.3755 H         1 UNK         0.3005 
    107 H107       31.0981  -48.7558  -57.1500 H         1 UNK         0.1257 
    108 H108       31.2688  -47.3061  -54.4692 H         1 UNK         0.0775 
    109 H109       30.8224  -46.5278  -55.9655 H         1 UNK         0.0775 
    110 H110       34.1495  -45.5868  -57.5049 H         1 UNK         0.0840 
    111 H111       32.5113  -46.0096  -57.9302 H         1 UNK         0.0840 
    112 H112       32.2944  -49.5101  -54.7169 H         1 UNK         0.2987 
    113 H113       31.6389  -52.8702  -54.4463 H         1 UNK         0.0785 
    114 H114       34.2861  -51.7421  -55.5215 H         1 UNK         0.0798 
    115 H115       33.3819  -53.0701  -56.2384 H         1 UNK         0.0798 
    116 H116       34.0901  -53.2585  -54.6427 H         1 UNK         0.0798 
    117 H117       33.5969  -51.1955  -53.1885 H         1 UNK         0.3079 
    118 H118       31.4301  -49.3893  -51.0124 H         1 UNK         0.0794 
    119 H119       33.5668  -51.5166  -50.4688 H         1 UNK         0.0786 
    120 H120       31.9273  -51.5046  -49.8428 H         1 UNK         0.0786 
    121 H121       33.0572  -50.2545  -49.3485 H         1 UNK         0.0786 
    122 H122       32.9983  -48.0358  -51.6927 H         1 UNK         0.3032 
    123 H123       36.2041  -47.9609  -51.8355 H         1 UNK         0.1094 
    124 H124       35.3844  -48.4759  -54.7333 H         1 UNK         0.0794 
    125 H125       36.6505  -47.3404  -54.2631 H         1 UNK         0.0794 
    126 H126       36.8143  -49.0488  -53.9002 H         1 UNK         0.0794 
    127 H127       34.1422  -46.5439  -53.4532 H         1 UNK         0.3016 
@<TRIPOS>BOND
     1    1    2 1    
     2    1   67 1    
     3    1   68 1    
     4    1   69 1    
     5    2    3 2    
     6    2    4 am   BACKBONE|DICT|INTERRES
     7    4    5 1    
     8    4   70 1    
     9    5    6 1    
    10    5   65 1    
    11    5   71 1    
    12    6    7 1    
    13    6   72 1    
    14    6   73 1    
    15    7    8 1    
    16    8    9 1    
    17    8   74 1    
    18    8   75 1    
    19    9   10 ar   
    20    9   14 ar   
    21   10   11 ar   
    22   10   76 1    
    23   11   12 ar   
    24   11   48 1    
    25   12   13 ar   
    26   12   77 1    
    27   13   14 ar   
    28   13   15 1    
    29   14   78 1    
    30   15   16 1    
    31   15   79 1    
    32   15   80 1    
    33   16   17 1    
    34   17   18 1    
    35   17   81 1    
    36   17   82 1    
    37   18   19 1    
    38   18   22 1    
    39   18   83 1    
    40   19   20 am   BACKBONE|DICT|INTERRES
    41   19   21 2    
    42   20   84 1    
    43   20   85 1    
    44   22   23 am   BACKBONE|DICT|INTERRES
    45   22   86 1    
    46   23   24 2    
    47   23   25 1    
    48   25   26 1    
    49   25   27 1    
    50   25   87 1    
    51   26   88 1    
    52   26   89 1    
    53   26   90 1    
    54   27   28 am   BACKBONE|DICT|INTERRES
    55   27   91 1    
    56   28   29 2    
    57   28   30 1    
    58   30   31 1    
    59   30   32 1    
    60   30   92 1    
    61   31   93 1    
    62   31   94 1    
    63   31   95 1    
    64   32   33 am   BACKBONE|DICT|INTERRES
    65   32   96 1    
    66   33   34 2    
    67   33   35 1    
    68   35   36 1    
    69   35   37 1    
    70   35   97 1    
    71   36   98 1    
    72   36   99 1    
    73   36  100 1    
    74   37   38 am   BACKBONE|DICT|INTERRES
    75   37  101 1    
    76   38   39 2    
    77   38   40 1    
    78   40   41 1    
    79   40   42 1    
    80   40  102 1    
    81   41  103 1    
    82   41  104 1    
    83   41  105 1    
    84   42   43 am   BACKBONE|DICT|INTERRES
    85   42  106 1    
    86   43   44 2    
    87   43   45 1    
    88   45   46 1    
    89   45   49 1    
    90   45  107 1    
    91   46   47 1    
    92   46  108 1    
    93   46  109 1    
    94   47   48 1    
    95   48  110 1    
    96   48  111 1    
    97   49   50 am   BACKBONE|DICT|INTERRES
    98   49  112 1    
    99   50   51 2    
   100   50   52 1    
   101   52   53 1    
   102   52   54 1    
   103   52  113 1    
   104   53  114 1    
   105   53  115 1    
   106   53  116 1    
   107   54   55 am   BACKBONE|DICT|INTERRES
   108   54  117 1    
   109   55   56 2    
   110   55   57 1    
   111   57   58 1    
   112   57   59 1    
   113   57  118 1    
   114   58  119 1    
   115   58  120 1    
   116   58  121 1    
   117   59   60 am   BACKBONE|DICT|INTERRES
   118   59  122 1    
   119   60   61 2    
   120   60   62 1    
   121   62   63 1    
   122   62   64 1    
   123   62  123 1    
   124   63  124 1    
   125   63  125 1    
   126   63  126 1    
   127   64   65 am   BACKBONE|DICT|INTERRES
   128   64  127 1    
   129   65   66 2    
@<TRIPOS>SUBSTRUCTURE
     1 UNK         1 GROUP             0       ****    0 ROOT    
