@<TRIPOS>MOLECULE
3R134
127   129    1
SMALL
USER_CHARGES


@<TRIPOS>ATOM
      1 CA         32.9531  -43.8146  -47.4880 C.3       0 UNK        -0.1968 
      2 C          33.3956  -44.4439  -48.8005 C.2       0 UNK         0.4852 
      3 O          34.5971  -44.5844  -49.0386 O.2       0 UNK        -0.5359 
      4 N          32.4379  -44.8293  -49.6540 N.am      1 UNK        -0.4300 
      5 CA         32.6664  -45.4558  -50.9609 C.3       1 UNK         0.0863 
      6 C6         31.4786  -45.2336  -51.9335 C.3       11 UNK        -0.0953 
      7 S7         31.0588  -43.4746  -52.1711 S.3       11 UNK        -0.2369 
      8 C8         32.0946  -43.0231  -53.6028 C.3       11 UNK         0.0226 
      9 C9         31.7357  -43.7732  -54.8819 C.ar      11 UNK        -0.0699 
     10 C10        32.7416  -44.3946  -55.6303 C.ar      11 UNK        -0.0804 
     11 C11        32.4364  -45.0583  -56.8231 C.ar      11 UNK        -0.0871 
     12 C12        31.1110  -45.1070  -57.2596 C.ar      11 UNK        -0.1008 
     13 C13        30.0939  -44.5123  -56.5100 C.ar      11 UNK        -0.0735 
     14 C14        30.4118  -43.8314  -55.3319 C.ar      11 UNK        -0.0945 
     15 C15        28.6502  -44.6566  -56.9556 C.3       11 UNK         0.0169 
     16 S16        28.2162  -43.4687  -58.2648 S.3       11 UNK        -0.2669 
     17 C17        27.2525  -42.2300  -57.3253 C.3       11 UNK        -0.0850 
     18 CA         25.7218  -42.4986  -57.3472 C.3       10 UNK         0.0855 
     19 C          25.0720  -42.1345  -58.7163 C.2       10 UNK         0.5543 
     20 N          24.4405  -43.0599  -59.4307 N.am      10 UNK        -0.7343 
     21 O          25.1299  -40.9791  -59.1303 O.2       10 UNK        -0.5027 
     22 N          25.4226  -43.8539  -56.8682 N.am      10 UNK        -0.4495 
     23 C          24.2659  -44.2706  -56.3461 C.2       10 UNK         0.4903 
     24 O          23.3174  -43.5245  -56.0990 O.2       10 UNK        -0.4860 
     25 CA         24.1657  -45.7816  -56.0504 C.3       9 UNK         0.0227 
     26 CB         22.7067  -46.2841  -56.0317 C.3       9 UNK        -0.1964 
     27 N          24.9883  -46.6253  -56.9335 N.am      9 UNK        -0.4231 
     28 C          24.9057  -46.7221  -58.2732 C.2       9 UNK         0.5014 
     29 O          24.1660  -46.0140  -58.9583 O.2       9 UNK        -0.5270 
     30 CA         25.7971  -47.7613  -58.9876 C.3       8 UNK         0.0284 
     31 CB         26.8575  -47.0675  -59.8589 C.3       8 UNK        -0.1977 
     32 N          26.4568  -48.7061  -58.0808 N.am      8 UNK        -0.4342 
     33 C          25.8247  -49.6826  -57.4097 C.2       8 UNK         0.5039 
     34 O          24.6366  -49.9596  -57.5779 O.2       8 UNK        -0.5547 
     35 CA         26.6242  -50.4645  -56.3471 C.3       7 UNK         0.0281 
     36 CB         27.0062  -51.8544  -56.8807 C.3       7 UNK        -0.1963 
     37 N          27.8350  -49.7877  -55.8716 N.am      7 UNK        -0.4444 
     38 C          27.8875  -48.5776  -55.2926 C.2       7 UNK         0.5104 
     39 O          26.8920  -47.8973  -55.0411 O.2       7 UNK        -0.5100 
     40 CA         29.2856  -47.9963  -55.0094 C.3       6 UNK         0.0396 
     41 CB         29.6558  -48.2081  -53.5361 C.3       6 UNK        -0.1801 
     42 N          30.3519  -48.5416  -55.8589 N.am      6 UNK        -0.4747 
     43 C          30.3720  -48.5226  -57.2033 C.2       6 UNK         0.5012 
     44 O          29.4760  -48.0254  -57.8877 O.2       6 UNK        -0.5003 
     45 CA         31.5403  -49.2369  -57.9163 C.3       5 UNK         0.0782 
     46 C46        32.5611  -48.2375  -58.5176 C.3       11 UNK        -0.0868 
     47 S47        33.6958  -47.4864  -57.2946 S.3       11 UNK        -0.2515 
     48 C48        33.5406  -45.7062  -57.6450 C.3       11 UNK         0.0199 
     49 N          32.1926  -50.2637  -57.0968 N.am      5 UNK        -0.4607 
     50 C          31.6051  -51.3664  -56.6138 C.2       4 UNK         0.5031 
     51 O          30.4353  -51.6718  -56.8473 O.2       4 UNK        -0.5119 
     52 CA         32.4489  -52.2638  -55.6898 C.3       4 UNK         0.0263 
     53 CB         32.9978  -53.4674  -56.4727 C.3       4 UNK        -0.1967 
     54 N          33.5601  -51.5769  -55.0161 N.am      4 UNK        -0.4237 
     55 C          33.4261  -50.5718  -54.1396 C.2       3 UNK         0.4908 
     56 O          32.3456  -50.0550  -53.8468 O.2       3 UNK        -0.5102 
     57 CA         34.7175  -50.0393  -53.5102 C.3       3 UNK         0.0241 
     58 CB         35.3928  -49.0004  -54.4234 C.3       3 UNK        -0.1971 
     59 N          34.3979  -49.4321  -52.2224 N.am      3 UNK        -0.4139 
     60 C          35.2455  -49.2600  -51.2032 C.2       2 UNK         0.5016 
     61 O          36.4341  -49.5853  -51.2454 O.2       2 UNK        -0.5319 
     62 CA         34.6703  -48.5969  -49.9346 C.3       2 UNK         0.0286 
     63 CB         35.6947  -48.5193  -48.7867 C.3       2 UNK        -0.1963 
     64 N          34.1648  -47.2472  -50.2013 N.am      2 UNK        -0.4790 
     65 C          32.9964  -46.9539  -50.7842 C.2       1 UNK         0.5024 
     66 O          32.1950  -47.8169  -51.1455 O.2       1 UNK        -0.4888 
     67 H67        33.3628  -42.8089  -47.3980 H         1 UNK         0.0892 
     68 H68        31.8679  -43.7464  -47.4137 H         1 UNK         0.0892 
     69 H69        33.3145  -44.4069  -46.6478 H         1 UNK         0.0892 
     70 H70        31.4683  -44.6998  -49.4024 H         1 UNK         0.3107 
     71 H71        33.5435  -44.9913  -51.4171 H         1 UNK         0.0773 
     72 H72        30.5814  -45.7333  -51.5635 H         1 UNK         0.0680 
     73 H73        31.6943  -45.6816  -52.9047 H         1 UNK         0.0680 
     74 H74        33.1405  -43.1844  -53.3372 H         1 UNK         0.0650 
     75 H75        31.9856  -41.9536  -53.7864 H         1 UNK         0.0650 
     76 H76        33.7675  -44.3534  -55.2906 H         1 UNK         0.1397 
     77 H77        30.8621  -45.6231  -58.1762 H         1 UNK         0.1363 
     78 H78        29.6278  -43.3613  -54.7544 H         1 UNK         0.1355 
     79 H79        28.4928  -45.6660  -57.3323 H         1 UNK         0.0707 
     80 H80        27.9823  -44.5581  -56.0991 H         1 UNK         0.0707 
     81 H81        27.6085  -42.2041  -56.2944 H         1 UNK         0.1034 
     82 H82        27.4760  -41.2393  -57.7258 H         1 UNK         0.1034 
     83 H83        25.2752  -41.8054  -56.6318 H         1 UNK         0.0482 
     84 H84        24.3785  -44.0208  -59.1114 H         1 UNK         0.3460 
     85 H85        24.0226  -42.7995  -60.3094 H         1 UNK         0.3460 
     86 H86        26.1242  -44.5470  -57.0774 H         1 UNK         0.2989 
     87 H87        24.5721  -45.9171  -55.0471 H         1 UNK         0.0559 
     88 H88        22.2130  -46.1254  -56.9910 H         1 UNK         0.0848 
     89 H89        22.1203  -45.7626  -55.2741 H         1 UNK         0.0848 
     90 H90        22.6568  -47.3483  -55.8011 H         1 UNK         0.0848 
     91 H91        25.6539  -47.2217  -56.4489 H         1 UNK         0.3144 
     92 H92        25.1440  -48.3329  -59.6503 H         1 UNK         0.0727 
     93 H93        27.5519  -46.4768  -59.2635 H         1 UNK         0.0790 
     94 H94        26.3931  -46.3922  -60.5789 H         1 UNK         0.0790 
     95 H95        27.4404  -47.7929  -60.4267 H         1 UNK         0.0790 
     96 H96        27.4456  -48.5528  -57.9071 H         1 UNK         0.3215 
     97 H97        25.9667  -50.5953  -55.4852 H         1 UNK         0.0863 
     98 H98        27.4959  -52.4548  -56.1136 H         1 UNK         0.0808 
     99 H99        27.6830  -51.7856  -57.7336 H         1 UNK         0.0808 
    100 H100       26.1233  -52.4054  -57.2076 H         1 UNK         0.0808 
    101 H101       28.7123  -50.2594  -56.0547 H         1 UNK         0.3118 
    102 H102       29.2396  -46.9230  -55.1953 H         1 UNK         0.0546 
    103 H103       30.6322  -47.7818  -53.3122 H         1 UNK         0.0828 
    104 H104       29.6911  -49.2667  -53.2759 H         1 UNK         0.0828 
    105 H105       28.9318  -47.7300  -52.8752 H         1 UNK         0.0828 
    106 H106       31.1207  -48.9919  -55.3747 H         1 UNK         0.3005 
    107 H107       31.0789  -49.7638  -58.7550 H         1 UNK         0.1257 
    108 H108       33.1818  -48.7615  -59.2459 H         1 UNK         0.0775 
    109 H109       32.0482  -47.4626  -59.0893 H         1 UNK         0.0775 
    110 H110       34.4957  -45.2285  -57.4211 H         1 UNK         0.0840 
    111 H111       33.3708  -45.5411  -58.7099 H         1 UNK         0.0840 
    112 H112       33.1508  -50.0754  -56.8411 H         1 UNK         0.2987 
    113 H113       31.7783  -52.6388  -54.9137 H         1 UNK         0.0785 
    114 H114       33.6996  -53.1588  -57.2486 H         1 UNK         0.0798 
    115 H115       32.1914  -54.0154  -56.9625 H         1 UNK         0.0798 
    116 H116       33.5095  -54.1703  -55.8149 H         1 UNK         0.0798 
    117 H117       34.4872  -51.9283  -55.2107 H         1 UNK         0.3079 
    118 H118       35.3941  -50.8815  -53.3495 H         1 UNK         0.0794 
    119 H119       34.7665  -48.1166  -54.5511 H         1 UNK         0.0786 
    120 H120       35.5914  -49.4101  -55.4144 H         1 UNK         0.0786 
    121 H121       36.3482  -48.6729  -54.0133 H         1 UNK         0.0786 
    122 H122       33.4276  -49.1451  -52.1136 H         1 UNK         0.3032 
    123 H123       33.8415  -49.2230  -49.5956 H         1 UNK         0.1094 
    124 H124       35.2472  -48.1040  -47.8834 H         1 UNK         0.0794 
    125 H125       36.0736  -49.5102  -48.5322 H         1 UNK         0.0794 
    126 H126       36.5520  -47.8989  -49.0513 H         1 UNK         0.0794 
    127 H127       34.7401  -46.4694  -49.8934 H         1 UNK         0.3016 
@<TRIPOS>BOND
     1    1    2 1    
     2    1   67 1    
     3    1   68 1    
     4    1   69 1    
     5    2    3 2    
     6    2    4 am   BACKBONE|DICT|INTERRES
     7    4    5 1    
     8    4   70 1    
     9    5    6 1    
    10    5   65 1    
    11    5   71 1    
    12    6    7 1    
    13    6   72 1    
    14    6   73 1    
    15    7    8 1    
    16    8    9 1    
    17    8   74 1    
    18    8   75 1    
    19    9   10 ar   
    20    9   14 ar   
    21   10   11 ar   
    22   10   76 1    
    23   11   12 ar   
    24   11   48 1    
    25   12   13 ar   
    26   12   77 1    
    27   13   14 ar   
    28   13   15 1    
    29   14   78 1    
    30   15   16 1    
    31   15   79 1    
    32   15   80 1    
    33   16   17 1    
    34   17   18 1    
    35   17   81 1    
    36   17   82 1    
    37   18   19 1    
    38   18   22 1    
    39   18   83 1    
    40   19   20 am   BACKBONE|DICT|INTERRES
    41   19   21 2    
    42   20   84 1    
    43   20   85 1    
    44   22   23 am   BACKBONE|DICT|INTERRES
    45   22   86 1    
    46   23   24 2    
    47   23   25 1    
    48   25   26 1    
    49   25   27 1    
    50   25   87 1    
    51   26   88 1    
    52   26   89 1    
    53   26   90 1    
    54   27   28 am   BACKBONE|DICT|INTERRES
    55   27   91 1    
    56   28   29 2    
    57   28   30 1    
    58   30   31 1    
    59   30   32 1    
    60   30   92 1    
    61   31   93 1    
    62   31   94 1    
    63   31   95 1    
    64   32   33 am   BACKBONE|DICT|INTERRES
    65   32   96 1    
    66   33   34 2    
    67   33   35 1    
    68   35   36 1    
    69   35   37 1    
    70   35   97 1    
    71   36   98 1    
    72   36   99 1    
    73   36  100 1    
    74   37   38 am   BACKBONE|DICT|INTERRES
    75   37  101 1    
    76   38   39 2    
    77   38   40 1    
    78   40   41 1    
    79   40   42 1    
    80   40  102 1    
    81   41  103 1    
    82   41  104 1    
    83   41  105 1    
    84   42   43 am   BACKBONE|DICT|INTERRES
    85   42  106 1    
    86   43   44 2    
    87   43   45 1    
    88   45   46 1    
    89   45   49 1    
    90   45  107 1    
    91   46   47 1    
    92   46  108 1    
    93   46  109 1    
    94   47   48 1    
    95   48  110 1    
    96   48  111 1    
    97   49   50 am   BACKBONE|DICT|INTERRES
    98   49  112 1    
    99   50   51 2    
   100   50   52 1    
   101   52   53 1    
   102   52   54 1    
   103   52  113 1    
   104   53  114 1    
   105   53  115 1    
   106   53  116 1    
   107   54   55 am   BACKBONE|DICT|INTERRES
   108   54  117 1    
   109   55   56 2    
   110   55   57 1    
   111   57   58 1    
   112   57   59 1    
   113   57  118 1    
   114   58  119 1    
   115   58  120 1    
   116   58  121 1    
   117   59   60 am   BACKBONE|DICT|INTERRES
   118   59  122 1    
   119   60   61 2    
   120   60   62 1    
   121   62   63 1    
   122   62   64 1    
   123   62  123 1    
   124   63  124 1    
   125   63  125 1    
   126   63  126 1    
   127   64   65 am   BACKBONE|DICT|INTERRES
   128   64  127 1    
   129   65   66 2    
@<TRIPOS>SUBSTRUCTURE
     1 UNK         1 GROUP             0       ****    0 ROOT    
