@<TRIPOS>MOLECULE
3R134
127   129    1
SMALL
USER_CHARGES


@<TRIPOS>ATOM
      1 CA         37.8275  -45.9488  -54.7999 C.3       0 UNK        -0.1968 
      2 C          36.3232  -46.0407  -54.5911 C.2       0 UNK         0.4852 
      3 O          35.6372  -46.6930  -55.3772 O.2       0 UNK        -0.5359 
      4 N          35.8082  -45.3875  -53.5413 N.am      1 UNK        -0.4300 
      5 CA         34.3848  -45.3700  -53.1808 C.3       1 UNK         0.0863 
      6 C6         34.0462  -44.1724  -52.2608 C.3       11 UNK        -0.0953 
      7 S7         34.4318  -42.5254  -52.9577 S.3       11 UNK        -0.2369 
      8 C8         33.7658  -42.5883  -54.6631 C.3       11 UNK         0.0226 
      9 C9         32.2977  -43.0025  -54.7871 C.ar      11 UNK        -0.0699 
     10 C10        31.3742  -42.7894  -53.7564 C.ar      11 UNK        -0.0804 
     11 C11        30.0482  -43.2108  -53.8793 C.ar      11 UNK        -0.0871 
     12 C12        29.6268  -43.7896  -55.0797 C.ar      11 UNK        -0.1008 
     13 C13        30.5314  -44.0048  -56.1230 C.ar      11 UNK        -0.0735 
     14 C14        31.8639  -43.6126  -55.9689 C.ar      11 UNK        -0.0945 
     15 C15        30.0794  -44.7099  -57.3933 C.3       11 UNK         0.0169 
     16 S16        29.6736  -43.5693  -58.7587 S.3       11 UNK        -0.2669 
     17 C17        28.3322  -42.5178  -58.0867 C.3       11 UNK        -0.0850 
     18 CA         26.8989  -43.0925  -58.2508 C.3       10 UNK         0.0855 
     19 C          26.4074  -43.0992  -59.7293 C.2       10 UNK         0.5543 
     20 N          25.9382  -44.2139  -60.2791 N.am      10 UNK        -0.7343 
     21 O          26.4337  -42.0618  -60.3870 O.2       10 UNK        -0.5027 
     22 N          26.7643  -44.3779  -57.5564 N.am      10 UNK        -0.4495 
     23 C          25.6533  -44.8450  -56.9785 C.2       10 UNK         0.4903 
     24 O          24.6027  -44.2078  -56.8934 O.2       10 UNK        -0.4860 
     25 CA         25.7508  -46.2694  -56.3950 C.3       9 UNK         0.0227 
     26 CB         24.3716  -46.9208  -56.1666 C.3       9 UNK        -0.1964 
     27 N          26.6208  -47.1739  -57.1627 N.am      9 UNK        -0.4231 
     28 C          26.5064  -47.4951  -58.4618 C.2       9 UNK         0.5014 
     29 O          25.6783  -46.9975  -59.2255 O.2       9 UNK        -0.5270 
     30 CA         27.4891  -48.5393  -59.0073 C.3       8 UNK         0.0284 
     31 CB         28.7798  -47.8623  -59.4998 C.3       8 UNK        -0.1977 
     32 N          27.8145  -49.5492  -57.9967 N.am      8 UNK        -0.4342 
     33 C          27.2027  -50.7350  -57.8877 C.2       8 UNK         0.5039 
     34 O          26.3076  -51.1190  -58.6422 O.2       8 UNK        -0.5547 
     35 CA         27.6825  -51.6637  -56.7614 C.3       7 UNK         0.0281 
     36 CB         29.0703  -52.2431  -57.0846 C.3       7 UNK        -0.1963 
     37 N          27.7173  -51.0252  -55.4448 N.am      7 UNK        -0.4444 
     38 C          26.6385  -50.7052  -54.7162 C.2       7 UNK         0.5104 
     39 O          25.4796  -50.8278  -55.1125 O.2       7 UNK        -0.5100 
     40 CA         26.8961  -50.1774  -53.2950 C.3       6 UNK         0.0396 
     41 CB         27.3114  -51.3193  -52.3520 C.3       6 UNK        -0.1801 
     42 N          27.9299  -49.1406  -53.3041 N.am      6 UNK        -0.4747 
     43 C          27.6725  -47.8245  -53.3046 C.2       6 UNK         0.5012 
     44 O          26.5413  -47.3664  -53.1453 O.2       6 UNK        -0.5003 
     45 CA         28.8468  -46.8478  -53.5679 C.3       5 UNK         0.0782 
     46 C46        29.1357  -45.9044  -52.3687 C.3       11 UNK        -0.0868 
     47 S47        28.0046  -44.4634  -52.3728 S.3       11 UNK        -0.2515 
     48 C48        29.0968  -43.0328  -52.6983 C.3       11 UNK         0.0199 
     49 N          30.0596  -47.5021  -54.0774 N.am      5 UNK        -0.4607 
     50 C          30.1500  -48.0227  -55.3093 C.2       4 UNK         0.5031 
     51 O          29.2292  -47.9864  -56.1261 O.2       4 UNK        -0.5119 
     52 CA         31.4427  -48.7661  -55.6787 C.3       4 UNK         0.0263 
     53 CB         32.5029  -47.7798  -56.1867 C.3       4 UNK        -0.1967 
     54 N          31.9950  -49.5704  -54.5848 N.am      4 UNK        -0.4237 
     55 C          31.3580  -50.5555  -53.9373 C.2       3 UNK         0.4908 
     56 O          30.1998  -50.8838  -54.1899 O.2       3 UNK        -0.5102 
     57 CA         32.0957  -51.2793  -52.7943 C.3       3 UNK         0.0241 
     58 CB         32.8620  -52.5084  -53.3203 C.3       3 UNK        -0.1971 
     59 N          32.9460  -50.4064  -51.9698 N.am      3 UNK        -0.4139 
     60 C          34.0617  -49.7567  -52.3271 C.2       2 UNK         0.5016 
     61 O          34.6102  -49.8719  -53.4253 O.2       2 UNK        -0.5319 
     62 CA         34.6214  -48.7496  -51.3107 C.3       2 UNK         0.0286 
     63 CB         35.9357  -49.2632  -50.7010 C.3       2 UNK        -0.1963 
     64 N          34.8530  -47.4442  -51.9346 N.am      2 UNK        -0.4790 
     65 C          33.9151  -46.6856  -52.5258 C.2       1 UNK         0.5024 
     66 O          32.7175  -46.9811  -52.5613 O.2       1 UNK        -0.4888 
     67 H67        38.3090  -45.3325  -54.0408 H         1 UNK         0.0892 
     68 H68        38.0442  -45.5151  -55.7758 H         1 UNK         0.0892 
     69 H69        38.2721  -46.9431  -54.7623 H         1 UNK         0.0892 
     70 H70        36.4159  -44.8422  -52.9461 H         1 UNK         0.3107 
     71 H71        33.8039  -45.2769  -54.0990 H         1 UNK         0.0773 
     72 H72        32.9877  -44.1853  -51.9959 H         1 UNK         0.0680 
     73 H73        34.5846  -44.2602  -51.3152 H         1 UNK         0.0680 
     74 H74        33.8793  -41.5994  -55.1084 H         1 UNK         0.0650 
     75 H75        34.3946  -43.2587  -55.2510 H         1 UNK         0.0650 
     76 H76        31.6899  -42.3108  -52.8403 H         1 UNK         0.1397 
     77 H77        28.5948  -44.0885  -55.1947 H         1 UNK         0.1363 
     78 H78        32.5654  -43.7865  -56.7737 H         1 UNK         0.1355 
     79 H79        29.2339  -45.3626  -57.1814 H         1 UNK         0.0707 
     80 H80        30.8748  -45.3717  -57.7366 H         1 UNK         0.0707 
     81 H81        28.3988  -41.5452  -58.5776 H         1 UNK         0.1034 
     82 H82        28.5246  -42.3026  -57.0368 H         1 UNK         0.1034 
     83 H83        26.2350  -42.3865  -57.7480 H         1 UNK         0.0482 
     84 H84        25.6194  -44.1898  -61.2343 H         1 UNK         0.3460 
     85 H85        25.8805  -45.0802  -59.7548 H         1 UNK         0.3460 
     86 H86        27.5598  -44.9917  -57.6301 H         1 UNK         0.2989 
     87 H87        26.2216  -46.1467  -55.4212 H         1 UNK         0.0559 
     88 H88        23.8196  -47.0352  -57.1001 H         1 UNK         0.0848 
     89 H89        23.7586  -46.3186  -55.4950 H         1 UNK         0.0848 
     90 H90        24.4720  -47.9067  -55.7116 H         1 UNK         0.0848 
     91 H91        27.3941  -47.5898  -56.6516 H         1 UNK         0.3144 
     92 H92        27.0168  -49.0161  -59.8690 H         1 UNK         0.0727 
     93 H93        29.4515  -48.5860  -59.9616 H         1 UNK         0.0790 
     94 H94        29.3234  -47.3738  -58.6920 H         1 UNK         0.0790 
     95 H95        28.5595  -47.1011  -60.2498 H         1 UNK         0.0790 
     96 H96        28.5004  -49.2794  -57.2971 H         1 UNK         0.3215 
     97 H97        26.9797  -52.4981  -56.7055 H         1 UNK         0.0863 
     98 H98        29.3726  -52.9817  -56.3419 H         1 UNK         0.0808 
     99 H99        29.8380  -51.4694  -57.1140 H         1 UNK         0.0808 
    100 H100       29.0700  -52.7411  -58.0552 H         1 UNK         0.0808 
    101 H101       28.6362  -50.9281  -55.0143 H         1 UNK         0.3118 
    102 H102       25.9551  -49.7726  -52.9165 H         1 UNK         0.0546 
    103 H103       26.5427  -52.0925  -52.3179 H         1 UNK         0.0828 
    104 H104       27.4511  -50.9579  -51.3333 H         1 UNK         0.0828 
    105 H105       28.2387  -51.7988  -52.6657 H         1 UNK         0.0828 
    106 H106       28.8788  -49.4532  -53.4728 H         1 UNK         0.3005 
    107 H107       28.4941  -46.2257  -54.3905 H         1 UNK         0.1257 
    108 H108       30.1631  -45.5387  -52.4074 H         1 UNK         0.0775 
    109 H109       29.0488  -46.4313  -51.4168 H         1 UNK         0.0775 
    110 H110       28.4772  -42.1534  -52.8781 H         1 UNK         0.0840 
    111 H111       29.6590  -42.8296  -51.7855 H         1 UNK         0.0840 
    112 H112       30.8671  -47.5334  -53.4638 H         1 UNK         0.2987 
    113 H113       31.2041  -49.4537  -56.4919 H         1 UNK         0.0785 
    114 H114       32.7466  -47.0261  -55.4379 H         1 UNK         0.0798 
    115 H115       32.1533  -47.2558  -57.0761 H         1 UNK         0.0798 
    116 H116       33.4272  -48.2906  -56.4574 H         1 UNK         0.0798 
    117 H117       32.9609  -49.3951  -54.3210 H         1 UNK         0.3079 
    118 H118       31.3208  -51.6480  -52.1200 H         1 UNK         0.0794 
    119 H119       33.6348  -52.2354  -54.0394 H         1 UNK         0.0786 
    120 H120       32.1847  -53.1994  -53.8241 H         1 UNK         0.0786 
    121 H121       33.3383  -53.0564  -52.5074 H         1 UNK         0.0786 
    122 H122       32.5738  -50.2134  -51.0497 H         1 UNK         0.3032 
    123 H123       33.8958  -48.6081  -50.5066 H         1 UNK         0.1094 
    124 H124       36.3218  -48.5748  -49.9489 H         1 UNK         0.0794 
    125 H125       35.7880  -50.2267  -50.2112 H         1 UNK         0.0794 
    126 H126       36.7068  -49.3993  -51.4607 H         1 UNK         0.0794 
    127 H127       35.8116  -47.1336  -51.9874 H         1 UNK         0.3016 
@<TRIPOS>BOND
     1    1    2 1    
     2    1   67 1    
     3    1   68 1    
     4    1   69 1    
     5    2    3 2    
     6    2    4 am   BACKBONE|DICT|INTERRES
     7    4    5 1    
     8    4   70 1    
     9    5    6 1    
    10    5   65 1    
    11    5   71 1    
    12    6    7 1    
    13    6   72 1    
    14    6   73 1    
    15    7    8 1    
    16    8    9 1    
    17    8   74 1    
    18    8   75 1    
    19    9   10 ar   
    20    9   14 ar   
    21   10   11 ar   
    22   10   76 1    
    23   11   12 ar   
    24   11   48 1    
    25   12   13 ar   
    26   12   77 1    
    27   13   14 ar   
    28   13   15 1    
    29   14   78 1    
    30   15   16 1    
    31   15   79 1    
    32   15   80 1    
    33   16   17 1    
    34   17   18 1    
    35   17   81 1    
    36   17   82 1    
    37   18   19 1    
    38   18   22 1    
    39   18   83 1    
    40   19   20 am   BACKBONE|DICT|INTERRES
    41   19   21 2    
    42   20   84 1    
    43   20   85 1    
    44   22   23 am   BACKBONE|DICT|INTERRES
    45   22   86 1    
    46   23   24 2    
    47   23   25 1    
    48   25   26 1    
    49   25   27 1    
    50   25   87 1    
    51   26   88 1    
    52   26   89 1    
    53   26   90 1    
    54   27   28 am   BACKBONE|DICT|INTERRES
    55   27   91 1    
    56   28   29 2    
    57   28   30 1    
    58   30   31 1    
    59   30   32 1    
    60   30   92 1    
    61   31   93 1    
    62   31   94 1    
    63   31   95 1    
    64   32   33 am   BACKBONE|DICT|INTERRES
    65   32   96 1    
    66   33   34 2    
    67   33   35 1    
    68   35   36 1    
    69   35   37 1    
    70   35   97 1    
    71   36   98 1    
    72   36   99 1    
    73   36  100 1    
    74   37   38 am   BACKBONE|DICT|INTERRES
    75   37  101 1    
    76   38   39 2    
    77   38   40 1    
    78   40   41 1    
    79   40   42 1    
    80   40  102 1    
    81   41  103 1    
    82   41  104 1    
    83   41  105 1    
    84   42   43 am   BACKBONE|DICT|INTERRES
    85   42  106 1    
    86   43   44 2    
    87   43   45 1    
    88   45   46 1    
    89   45   49 1    
    90   45  107 1    
    91   46   47 1    
    92   46  108 1    
    93   46  109 1    
    94   47   48 1    
    95   48  110 1    
    96   48  111 1    
    97   49   50 am   BACKBONE|DICT|INTERRES
    98   49  112 1    
    99   50   51 2    
   100   50   52 1    
   101   52   53 1    
   102   52   54 1    
   103   52  113 1    
   104   53  114 1    
   105   53  115 1    
   106   53  116 1    
   107   54   55 am   BACKBONE|DICT|INTERRES
   108   54  117 1    
   109   55   56 2    
   110   55   57 1    
   111   57   58 1    
   112   57   59 1    
   113   57  118 1    
   114   58  119 1    
   115   58  120 1    
   116   58  121 1    
   117   59   60 am   BACKBONE|DICT|INTERRES
   118   59  122 1    
   119   60   61 2    
   120   60   62 1    
   121   62   63 1    
   122   62   64 1    
   123   62  123 1    
   124   63  124 1    
   125   63  125 1    
   126   63  126 1    
   127   64   65 am   BACKBONE|DICT|INTERRES
   128   64  127 1    
   129   65   66 2    
@<TRIPOS>SUBSTRUCTURE
     1 UNK         1 GROUP             0       ****    0 ROOT    
