@<TRIPOS>MOLECULE
3R134
127   129    1
SMALL
USER_CHARGES


@<TRIPOS>ATOM
      1 CA         36.0792  -45.1788  -53.5064 C.3       0 UNK        -0.1968 
      2 C          36.0647  -45.2283  -51.9823 C.2       0 UNK         0.4852 
      3 O          37.1259  -45.3672  -51.3758 O.2       0 UNK        -0.5359 
      4 N          34.9078  -45.1253  -51.3160 N.am      1 UNK        -0.4300 
      5 CA         33.5545  -45.0020  -51.8690 C.3       1 UNK         0.0863 
      6 C6         32.9132  -43.6259  -51.5385 C.3       11 UNK        -0.0953 
      7 S7         33.8412  -42.2333  -52.2717 S.3       11 UNK        -0.2369 
      8 C8         32.5594  -41.3392  -53.2187 C.3       11 UNK         0.0226 
      9 C9         31.9053  -42.1592  -54.3287 C.ar      11 UNK        -0.0699 
     10 C10        32.6580  -43.0177  -55.1385 C.ar      11 UNK        -0.0804 
     11 C11        32.0382  -43.7906  -56.1234 C.ar      11 UNK        -0.0871 
     12 C12        30.6617  -43.6690  -56.3307 C.ar      11 UNK        -0.1008 
     13 C13        29.9025  -42.7914  -55.5535 C.ar      11 UNK        -0.0735 
     14 C14        30.5282  -42.0433  -54.5513 C.ar      11 UNK        -0.0945 
     15 C15        28.4064  -42.6684  -55.7979 C.3       11 UNK         0.0169 
     16 S16        28.0807  -41.8050  -57.3650 S.3       11 UNK        -0.2669 
     17 C17        26.2560  -41.8599  -57.4524 C.3       11 UNK        -0.0850 
     18 CA         25.6717  -43.0589  -58.2550 C.3       10 UNK         0.0855 
     19 C          26.1821  -43.1588  -59.7179 C.2       10 UNK         0.5543 
     20 N          25.8741  -42.1737  -60.5504 N.am      10 UNK        -0.7343 
     21 O          26.8526  -44.1150  -60.1058 O.2       10 UNK        -0.5027 
     22 N          25.8318  -44.3348  -57.5514 N.am      10 UNK        -0.4495 
     23 C          25.0529  -44.7746  -56.5582 C.2       10 UNK         0.4903 
     24 O          24.1448  -44.1024  -56.0666 O.2       10 UNK        -0.4860 
     25 CA         25.3317  -46.1852  -55.9977 C.3       9 UNK         0.0227 
     26 CB         24.0323  -46.9180  -55.6012 C.3       9 UNK        -0.1964 
     27 N          26.1695  -47.0391  -56.8511 N.am      9 UNK        -0.4231 
     28 C          25.8925  -47.5038  -58.0799 C.2       9 UNK         0.5014 
     29 O          24.8743  -47.2261  -58.7146 O.2       9 UNK        -0.5270 
     30 CA         26.9339  -48.4502  -58.7019 C.3       8 UNK         0.0284 
     31 CB         28.1702  -47.6678  -59.1764 C.3       8 UNK        -0.1977 
     32 N          27.3410  -49.5166  -57.7820 N.am      8 UNK        -0.4342 
     33 C          26.5358  -50.5008  -57.3524 C.2       8 UNK         0.5039 
     34 O          25.3850  -50.6726  -57.7563 O.2       8 UNK        -0.5547 
     35 CA         27.0987  -51.4448  -56.2749 C.3       7 UNK         0.0281 
     36 CB         27.9877  -52.5309  -56.9014 C.3       7 UNK        -0.1963 
     37 N          27.8449  -50.7258  -55.2406 N.am      7 UNK        -0.4444 
     38 C          27.2986  -49.8670  -54.3675 C.2       7 UNK         0.5104 
     39 O          26.0891  -49.6671  -54.2642 O.2       7 UNK        -0.5100 
     40 CA         28.2677  -49.0711  -53.4782 C.3       6 UNK         0.0396 
     41 CB         28.5734  -49.8299  -52.1772 C.3       6 UNK        -0.1801 
     42 N          29.5152  -48.7444  -54.1734 N.am      6 UNK        -0.4747 
     43 C          29.6144  -47.8341  -55.1539 C.2       6 UNK         0.5012 
     44 O          28.6703  -47.1520  -55.5509 O.2       6 UNK        -0.5003 
     45 CA         30.9900  -47.6798  -55.8279 C.3       5 UNK         0.0782 
     46 C46        31.8625  -46.6973  -55.0230 C.3       11 UNK        -0.0868 
     47 S47        33.3874  -46.2154  -55.9028 S.3       11 UNK        -0.2515 
     48 C48        32.8408  -44.8045  -56.9244 C.3       11 UNK         0.0199 
     49 N          31.6519  -48.9729  -56.0131 N.am      5 UNK        -0.4607 
     50 C          31.2188  -49.9256  -56.8488 C.2       4 UNK         0.5031 
     51 O          30.2367  -49.7940  -57.5787 O.2       4 UNK        -0.5119 
     52 CA         31.9688  -51.2692  -56.8252 C.3       4 UNK         0.0263 
     53 CB         33.1418  -51.2458  -57.8171 C.3       4 UNK        -0.1967 
     54 N          32.4597  -51.6390  -55.4932 N.am      4 UNK        -0.4237 
     55 C          31.6875  -51.8040  -54.4098 C.2       3 UNK         0.4908 
     56 O          30.4614  -51.6928  -54.4264 O.2       3 UNK        -0.5102 
     57 CA         32.3853  -52.0953  -53.0693 C.3       3 UNK         0.0241 
     58 CB         33.8450  -52.5867  -53.2091 C.3       3 UNK        -0.1971 
     59 N          32.3063  -50.9421  -52.1616 N.am      3 UNK        -0.4139 
     60 C          32.7936  -49.7113  -52.3803 C.2       2 UNK         0.5016 
     61 O          33.3729  -49.3751  -53.4178 O.2       2 UNK        -0.5319 
     62 CA         32.5942  -48.6826  -51.2546 C.3       2 UNK         0.0286 
     63 CB         33.2375  -49.1440  -49.9325 C.3       2 UNK        -0.1963 
     64 N          33.1874  -47.4080  -51.6558 N.am      2 UNK        -0.4790 
     65 C          32.7390  -46.1909  -51.3245 C.2       1 UNK         0.5024 
     66 O          31.7633  -46.0012  -50.5968 O.2       1 UNK        -0.4888 
     67 H67        37.1020  -45.1215  -53.8780 H         1 UNK         0.0892 
     68 H68        35.6243  -46.0772  -53.9212 H         1 UNK         0.0892 
     69 H69        35.5462  -44.3049  -53.8782 H         1 UNK         0.0892 
     70 H70        34.9379  -45.1853  -50.3077 H         1 UNK         0.3107 
     71 H71        33.5546  -45.1138  -52.9535 H         1 UNK         0.0773 
     72 H72        32.8675  -43.4699  -50.4592 H         1 UNK         0.0680 
     73 H73        31.8817  -43.5942  -51.8941 H         1 UNK         0.0680 
     74 H74        33.0128  -40.4536  -53.6651 H         1 UNK         0.0650 
     75 H75        31.8068  -40.9798  -52.5151 H         1 UNK         0.0650 
     76 H76        33.7230  -43.1138  -54.9818 H         1 UNK         0.1397 
     77 H77        30.1728  -44.2638  -57.0905 H         1 UNK         0.1363 
     78 H78        29.9406  -41.3699  -53.9423 H         1 UNK         0.1355 
     79 H79        27.9644  -43.6652  -55.8260 H         1 UNK         0.0707 
     80 H80        27.9212  -42.1329  -54.9804 H         1 UNK         0.0707 
     81 H81        25.9234  -40.9242  -57.9042 H         1 UNK         0.1034 
     82 H82        25.8437  -41.8463  -56.4425 H         1 UNK         0.1034 
     83 H83        24.5965  -42.8928  -58.3498 H         1 UNK         0.0482 
     84 H84        25.3238  -41.3849  -60.2487 H         1 UNK         0.3460 
     85 H85        26.1995  -42.2207  -61.5033 H         1 UNK         0.3460 
     86 H86        26.5294  -44.9491  -57.9487 H         1 UNK         0.2989 
     87 H87        25.9107  -46.0318  -55.0860 H         1 UNK         0.0559 
     88 H88        23.4855  -46.3650  -54.8367 H         1 UNK         0.0848 
     89 H89        24.2422  -47.9065  -55.1934 H         1 UNK         0.0848 
     90 H90        23.3628  -47.0431  -56.4526 H         1 UNK         0.0848 
     91 H91        27.0724  -47.2776  -56.4431 H         1 UNK         0.3144 
     92 H92        26.4767  -48.9202  -59.5753 H         1 UNK         0.0727 
     93 H93        27.8879  -46.8787  -59.8751 H         1 UNK         0.0790 
     94 H94        28.8763  -48.3194  -59.6917 H         1 UNK         0.0790 
     95 H95        28.6980  -47.1957  -58.3475 H         1 UNK         0.0790 
     96 H96        28.3087  -49.5095  -57.4706 H         1 UNK         0.3215 
     97 H97        26.2531  -51.9381  -55.7904 H         1 UNK         0.0863 
     98 H98        28.3776  -53.2116  -56.1442 H         1 UNK         0.0808 
     99 H99        28.8354  -52.1035  -57.4361 H         1 UNK         0.0808 
    100 H100       27.4220  -53.1292  -57.6167 H         1 UNK         0.0808 
    101 H101       28.8439  -50.9008  -55.1795 H         1 UNK         0.3118 
    102 H102       27.7737  -48.1344  -53.2101 H         1 UNK         0.0546 
    103 H103       29.0895  -50.7717  -52.3631 H         1 UNK         0.0828 
    104 H104       27.6524  -50.0670  -51.6428 H         1 UNK         0.0828 
    105 H105       29.1882  -49.2326  -51.5049 H         1 UNK         0.0828 
    106 H106       30.3170  -49.3235  -53.9693 H         1 UNK         0.3005 
    107 H107       30.8100  -47.2497  -56.8158 H         1 UNK         0.1257 
    108 H108       31.2996  -45.8127  -54.7263 H         1 UNK         0.0775 
    109 H109       32.1591  -47.1609  -54.0863 H         1 UNK         0.0775 
    110 H110       33.7162  -44.3169  -57.3557 H         1 UNK         0.0840 
    111 H111       32.2574  -45.1826  -57.7653 H         1 UNK         0.0840 
    112 H112       32.4552  -49.1570  -55.4227 H         1 UNK         0.2987 
    113 H113       31.2673  -52.0429  -57.1429 H         1 UNK         0.0785 
    114 H114       33.6301  -52.2185  -57.8786 H         1 UNK         0.0798 
    115 H115       33.8944  -50.5077  -57.5363 H         1 UNK         0.0798 
    116 H116       32.7975  -50.9942  -58.8214 H         1 UNK         0.0798 
    117 H117       33.4602  -51.7133  -55.3789 H         1 UNK         0.3079 
    118 H118       31.8134  -52.8989  -52.6026 H         1 UNK         0.0794 
    119 H119       33.9059  -53.4632  -53.8559 H         1 UNK         0.0786 
    120 H120       34.2487  -52.8800  -52.2399 H         1 UNK         0.0786 
    121 H121       34.5080  -51.8238  -53.6185 H         1 UNK         0.0786 
    122 H122       31.8232  -51.1159  -51.2913 H         1 UNK         0.3032 
    123 H123       31.5191  -48.5546  -51.1122 H         1 UNK         0.1094 
    124 H124       34.3060  -49.3298  -50.0498 H         1 UNK         0.0794 
    125 H125       33.1150  -48.3939  -49.1508 H         1 UNK         0.0794 
    126 H126       32.7831  -50.0635  -49.5625 H         1 UNK         0.0794 
    127 H127       33.9570  -47.4993  -52.3073 H         1 UNK         0.3016 
@<TRIPOS>BOND
     1    1    2 1    
     2    1   67 1    
     3    1   68 1    
     4    1   69 1    
     5    2    3 2    
     6    2    4 am   BACKBONE|DICT|INTERRES
     7    4    5 1    
     8    4   70 1    
     9    5    6 1    
    10    5   65 1    
    11    5   71 1    
    12    6    7 1    
    13    6   72 1    
    14    6   73 1    
    15    7    8 1    
    16    8    9 1    
    17    8   74 1    
    18    8   75 1    
    19    9   10 ar   
    20    9   14 ar   
    21   10   11 ar   
    22   10   76 1    
    23   11   12 ar   
    24   11   48 1    
    25   12   13 ar   
    26   12   77 1    
    27   13   14 ar   
    28   13   15 1    
    29   14   78 1    
    30   15   16 1    
    31   15   79 1    
    32   15   80 1    
    33   16   17 1    
    34   17   18 1    
    35   17   81 1    
    36   17   82 1    
    37   18   19 1    
    38   18   22 1    
    39   18   83 1    
    40   19   20 am   BACKBONE|DICT|INTERRES
    41   19   21 2    
    42   20   84 1    
    43   20   85 1    
    44   22   23 am   BACKBONE|DICT|INTERRES
    45   22   86 1    
    46   23   24 2    
    47   23   25 1    
    48   25   26 1    
    49   25   27 1    
    50   25   87 1    
    51   26   88 1    
    52   26   89 1    
    53   26   90 1    
    54   27   28 am   BACKBONE|DICT|INTERRES
    55   27   91 1    
    56   28   29 2    
    57   28   30 1    
    58   30   31 1    
    59   30   32 1    
    60   30   92 1    
    61   31   93 1    
    62   31   94 1    
    63   31   95 1    
    64   32   33 am   BACKBONE|DICT|INTERRES
    65   32   96 1    
    66   33   34 2    
    67   33   35 1    
    68   35   36 1    
    69   35   37 1    
    70   35   97 1    
    71   36   98 1    
    72   36   99 1    
    73   36  100 1    
    74   37   38 am   BACKBONE|DICT|INTERRES
    75   37  101 1    
    76   38   39 2    
    77   38   40 1    
    78   40   41 1    
    79   40   42 1    
    80   40  102 1    
    81   41  103 1    
    82   41  104 1    
    83   41  105 1    
    84   42   43 am   BACKBONE|DICT|INTERRES
    85   42  106 1    
    86   43   44 2    
    87   43   45 1    
    88   45   46 1    
    89   45   49 1    
    90   45  107 1    
    91   46   47 1    
    92   46  108 1    
    93   46  109 1    
    94   47   48 1    
    95   48  110 1    
    96   48  111 1    
    97   49   50 am   BACKBONE|DICT|INTERRES
    98   49  112 1    
    99   50   51 2    
   100   50   52 1    
   101   52   53 1    
   102   52   54 1    
   103   52  113 1    
   104   53  114 1    
   105   53  115 1    
   106   53  116 1    
   107   54   55 am   BACKBONE|DICT|INTERRES
   108   54  117 1    
   109   55   56 2    
   110   55   57 1    
   111   57   58 1    
   112   57   59 1    
   113   57  118 1    
   114   58  119 1    
   115   58  120 1    
   116   58  121 1    
   117   59   60 am   BACKBONE|DICT|INTERRES
   118   59  122 1    
   119   60   61 2    
   120   60   62 1    
   121   62   63 1    
   122   62   64 1    
   123   62  123 1    
   124   63  124 1    
   125   63  125 1    
   126   63  126 1    
   127   64   65 am   BACKBONE|DICT|INTERRES
   128   64  127 1    
   129   65   66 2    
@<TRIPOS>SUBSTRUCTURE
     1 UNK         1 GROUP             0       ****    0 ROOT    
