@<TRIPOS>MOLECULE
3R134
127   129    1
SMALL
USER_CHARGES


@<TRIPOS>ATOM
      1 CA         29.5146  -46.1048  -50.2130 C.3       0 UNK        -0.1968 
      2 C          31.0255  -46.0558  -50.0380 C.2       0 UNK         0.4852 
      3 O          31.5460  -46.6031  -49.0653 O.2       0 UNK        -0.5359 
      4 N          31.7277  -45.4012  -50.9735 N.am      1 UNK        -0.4300 
      5 CA         33.1884  -45.2404  -51.0024 C.3       1 UNK         0.0863 
      6 C6         33.6408  -44.2931  -52.1415 C.3       11 UNK        -0.0953 
      7 S7         32.8401  -42.6584  -52.0560 S.3       11 UNK        -0.2369 
      8 C8         33.3735  -41.9206  -53.6322 C.3       11 UNK         0.0226 
      9 C9         32.6892  -42.5579  -54.8345 C.ar      11 UNK        -0.0699 
     10 C10        33.4152  -43.3521  -55.7265 C.ar      11 UNK        -0.0804 
     11 C11        32.8000  -43.8970  -56.8585 C.ar      11 UNK        -0.0871 
     12 C12        31.4364  -43.6683  -57.0786 C.ar      11 UNK        -0.1008 
     13 C13        30.6966  -42.8779  -56.1898 C.ar      11 UNK        -0.0735 
     14 C14        31.3347  -42.3180  -55.0778 C.ar      11 UNK        -0.0945 
     15 C15        29.2233  -42.5830  -56.4497 C.3       11 UNK         0.0169 
     16 S16        28.1700  -43.0541  -55.0389 S.3       11 UNK        -0.2669 
     17 C17        26.5491  -42.3766  -55.5291 C.3       11 UNK        -0.0850 
     18 CA         25.5190  -43.4824  -55.8812 C.3       10 UNK         0.0855 
     19 C          24.0777  -42.8936  -55.9424 C.2       10 UNK         0.5543 
     20 N          23.4023  -42.8933  -57.0856 N.am      10 UNK        -0.7343 
     21 O          23.5617  -42.4304  -54.9282 O.2       10 UNK        -0.5027 
     22 N          25.9219  -44.2385  -57.0798 N.am      10 UNK        -0.4495 
     23 C          25.4709  -45.4573  -57.4045 C.2       10 UNK         0.4903 
     24 O          24.6890  -46.1023  -56.7046 O.2       10 UNK        -0.4860 
     25 CA         25.9358  -46.0460  -58.7494 C.3       9 UNK         0.0227 
     26 CB         26.9677  -45.1762  -59.5001 C.3       9 UNK        -0.1964 
     27 N          26.5018  -47.3753  -58.5293 N.am      9 UNK        -0.4231 
     28 C          25.8706  -48.5369  -58.7446 C.2       9 UNK         0.5014 
     29 O          24.7330  -48.6312  -59.2093 O.2       9 UNK        -0.5270 
     30 CA         26.6453  -49.8196  -58.3953 C.3       8 UNK         0.0284 
     31 CB         27.6898  -50.1383  -59.4780 C.3       8 UNK        -0.1977 
     32 N          27.3029  -49.7512  -57.0895 N.am      8 UNK        -0.4342 
     33 C          26.6683  -49.7484  -55.9083 C.2       8 UNK         0.5039 
     34 O          25.4480  -49.8559  -55.7828 O.2       8 UNK        -0.5547 
     35 CA         27.5427  -49.6008  -54.6525 C.3       7 UNK         0.0281 
     36 CB         28.1242  -50.9554  -54.2156 C.3       7 UNK        -0.1963 
     37 N          28.6270  -48.6440  -54.8724 N.am      7 UNK        -0.4444 
     38 C          28.4858  -47.3155  -54.7734 C.2       7 UNK         0.5104 
     39 O          27.4638  -46.7662  -54.3638 O.2       7 UNK        -0.5100 
     40 CA         29.6786  -46.4475  -55.2104 C.3       6 UNK         0.0396 
     41 CB         30.4665  -45.9438  -53.9962 C.3       6 UNK        -0.1801 
     42 N          30.5898  -47.1221  -56.1353 N.am      6 UNK        -0.4747 
     43 C          30.3041  -47.3422  -57.4245 C.2       6 UNK         0.5012 
     44 O          29.2283  -47.0497  -57.9430 O.2       6 UNK        -0.5003 
     45 CA         31.3747  -48.0575  -58.2687 C.3       5 UNK         0.0782 
     46 C46        32.4299  -47.0640  -58.8145 C.3       11 UNK        -0.0868 
     47 S47        33.6232  -46.4665  -57.5606 S.3       11 UNK        -0.2515 
     48 C48        33.6357  -44.6718  -57.8692 C.3       11 UNK         0.0199 
     49 N          31.9873  -49.2125  -57.6010 N.am      5 UNK        -0.4607 
     50 C          31.3301  -50.2525  -57.0721 C.2       4 UNK         0.5031 
     51 O          30.1023  -50.3261  -57.0200 O.2       4 UNK        -0.5119 
     52 CA         32.1643  -51.3892  -56.4719 C.3       4 UNK         0.0263 
     53 CB         33.6760  -51.3127  -56.7808 C.3       4 UNK        -0.1967 
     54 N          31.9496  -51.3751  -55.0321 N.am      4 UNK        -0.4237 
     55 C          32.0203  -52.4218  -54.2064 C.2       3 UNK         0.4908 
     56 O          32.2500  -53.5743  -54.5779 O.2       3 UNK        -0.5102 
     57 CA         31.8398  -52.1041  -52.7066 C.3       3 UNK         0.0241 
     58 CB         31.9759  -53.3514  -51.8131 C.3       3 UNK        -0.1971 
     59 N          32.7906  -51.0827  -52.2506 N.am      3 UNK        -0.4139 
     60 C          32.6918  -49.7702  -52.4965 C.2       2 UNK         0.5016 
     61 O          31.7557  -49.2573  -53.1201 O.2       2 UNK        -0.5319 
     62 CA         33.8619  -48.8952  -52.0413 C.3       2 UNK         0.0286 
     63 CB         34.9765  -48.8914  -53.1051 C.3       2 UNK        -0.1963 
     64 N          33.3581  -47.5429  -51.8393 N.am      2 UNK        -0.4790 
     65 C          33.9427  -46.5825  -51.1142 C.2       1 UNK         0.5024 
     66 O          35.0272  -46.7193  -50.5461 O.2       1 UNK        -0.4888 
     67 H67        29.0187  -45.8714  -49.2711 H         1 UNK         0.0892 
     68 H68        29.1661  -45.3916  -50.9595 H         1 UNK         0.0892 
     69 H69        29.2057  -47.1028  -50.5231 H         1 UNK         0.0892 
     70 H70        31.2373  -44.9248  -51.7158 H         1 UNK         0.3107 
     71 H71        33.4790  -44.7905  -50.0506 H         1 UNK         0.0773 
     72 H72        33.4260  -44.7384  -53.1146 H         1 UNK         0.0680 
     73 H73        34.7211  -44.1389  -52.1048 H         1 UNK         0.0680 
     74 H74        34.4590  -41.9939  -53.7148 H         1 UNK         0.0650 
     75 H75        33.1407  -40.8551  -53.6149 H         1 UNK         0.0650 
     76 H76        34.4686  -43.5255  -55.5537 H         1 UNK         0.1397 
     77 H77        30.9580  -44.0883  -57.9527 H         1 UNK         0.1363 
     78 H78        30.7730  -41.6944  -54.3956 H         1 UNK         0.1355 
     79 H79        28.8755  -43.1069  -57.3409 H         1 UNK         0.0707 
     80 H80        29.1115  -41.5159  -56.6462 H         1 UNK         0.0707 
     81 H81        26.1955  -41.7798  -54.6858 H         1 UNK         0.1034 
     82 H82        26.6635  -41.6767  -56.3587 H         1 UNK         0.1034 
     83 H83        25.5065  -44.1880  -55.0476 H         1 UNK         0.0482 
     84 H84        22.4697  -42.5117  -57.1084 H         1 UNK         0.3460 
     85 H85        23.8132  -43.2731  -57.9227 H         1 UNK         0.3460 
     86 H86        26.5536  -43.7709  -57.7110 H         1 UNK         0.2989 
     87 H87        25.0497  -46.1190  -59.3829 H         1 UNK         0.0559 
     88 H88        26.5483  -44.2074  -59.7742 H         1 UNK         0.0848 
     89 H89        27.2785  -45.6567  -60.4281 H         1 UNK         0.0848 
     90 H90        27.8675  -44.9994  -58.9097 H         1 UNK         0.0848 
     91 H91        27.4519  -47.3922  -58.1622 H         1 UNK         0.3144 
     92 H92        25.9287  -50.6433  -58.3652 H         1 UNK         0.0727 
     93 H93        28.4519  -49.3614  -59.5466 H         1 UNK         0.0790 
     94 H94        27.2209  -50.2241  -60.4592 H         1 UNK         0.0790 
     95 H95        28.1946  -51.0832  -59.2754 H         1 UNK         0.0790 
     96 H96        28.3204  -49.7522  -57.0898 H         1 UNK         0.3215 
     97 H97        26.9049  -49.2362  -53.8439 H         1 UNK         0.0863 
     98 H98        28.6940  -50.8561  -53.2922 H         1 UNK         0.0808 
     99 H99        28.7801  -51.3856  -54.9726 H         1 UNK         0.0808 
    100 H100       27.3278  -51.6767  -54.0283 H         1 UNK         0.0808 
    101 H101       29.4930  -49.0069  -55.2458 H         1 UNK         0.3118 
    102 H102       29.2709  -45.5805  -55.7307 H         1 UNK         0.0546 
    103 H103       30.8510  -46.7698  -53.4000 H         1 UNK         0.0828 
    104 H104       29.8251  -45.3371  -53.3567 H         1 UNK         0.0828 
    105 H105       31.3048  -45.3174  -54.3011 H         1 UNK         0.0828 
    106 H106       31.5002  -47.3867  -55.7867 H         1 UNK         0.3005 
    107 H107       30.8424  -48.4622  -59.1325 H         1 UNK         0.1257 
    108 H108       33.0060  -47.5497  -59.6036 H         1 UNK         0.0775 
    109 H109       31.9340  -46.2211  -59.2994 H         1 UNK         0.0775 
    110 H110       34.6709  -44.3295  -57.8249 H         1 UNK         0.0840 
    111 H111       33.3039  -44.4493  -58.8841 H         1 UNK         0.0840 
    112 H112       32.9965  -49.2148  -57.5726 H         1 UNK         0.2987 
    113 H113       31.7687  -52.3189  -56.8865 H         1 UNK         0.0785 
    114 H114       33.8608  -51.2832  -57.8556 H         1 UNK         0.0798 
    115 H115       34.1957  -52.1905  -56.3962 H         1 UNK         0.0798 
    116 H116       34.1439  -50.4356  -56.3316 H         1 UNK         0.0798 
    117 H117       31.7460  -50.4706  -54.6136 H         1 UNK         0.3079 
    118 H118       30.8270  -51.7173  -52.5795 H         1 UNK         0.0794 
    119 H119       31.7949  -53.1105  -50.7653 H         1 UNK         0.0786 
    120 H120       32.9684  -53.7974  -51.8889 H         1 UNK         0.0786 
    121 H121       31.2514  -54.1162  -52.0964 H         1 UNK         0.0786 
    122 H122       33.6136  -51.4250  -51.7751 H         1 UNK         0.3032 
    123 H123       34.2470  -49.2808  -51.0943 H         1 UNK         0.1094 
    124 H124       35.8287  -48.2897  -52.7891 H         1 UNK         0.0794 
    125 H125       35.3474  -49.9002  -53.2913 H         1 UNK         0.0794 
    126 H126       34.6217  -48.4931  -54.0569 H         1 UNK         0.0794 
    127 H127       32.4453  -47.3815  -52.2451 H         1 UNK         0.3016 
@<TRIPOS>BOND
     1    1    2 1    
     2    1   67 1    
     3    1   68 1    
     4    1   69 1    
     5    2    3 2    
     6    2    4 am   BACKBONE|DICT|INTERRES
     7    4    5 1    
     8    4   70 1    
     9    5    6 1    
    10    5   65 1    
    11    5   71 1    
    12    6    7 1    
    13    6   72 1    
    14    6   73 1    
    15    7    8 1    
    16    8    9 1    
    17    8   74 1    
    18    8   75 1    
    19    9   10 ar   
    20    9   14 ar   
    21   10   11 ar   
    22   10   76 1    
    23   11   12 ar   
    24   11   48 1    
    25   12   13 ar   
    26   12   77 1    
    27   13   14 ar   
    28   13   15 1    
    29   14   78 1    
    30   15   16 1    
    31   15   79 1    
    32   15   80 1    
    33   16   17 1    
    34   17   18 1    
    35   17   81 1    
    36   17   82 1    
    37   18   19 1    
    38   18   22 1    
    39   18   83 1    
    40   19   20 am   BACKBONE|DICT|INTERRES
    41   19   21 2    
    42   20   84 1    
    43   20   85 1    
    44   22   23 am   BACKBONE|DICT|INTERRES
    45   22   86 1    
    46   23   24 2    
    47   23   25 1    
    48   25   26 1    
    49   25   27 1    
    50   25   87 1    
    51   26   88 1    
    52   26   89 1    
    53   26   90 1    
    54   27   28 am   BACKBONE|DICT|INTERRES
    55   27   91 1    
    56   28   29 2    
    57   28   30 1    
    58   30   31 1    
    59   30   32 1    
    60   30   92 1    
    61   31   93 1    
    62   31   94 1    
    63   31   95 1    
    64   32   33 am   BACKBONE|DICT|INTERRES
    65   32   96 1    
    66   33   34 2    
    67   33   35 1    
    68   35   36 1    
    69   35   37 1    
    70   35   97 1    
    71   36   98 1    
    72   36   99 1    
    73   36  100 1    
    74   37   38 am   BACKBONE|DICT|INTERRES
    75   37  101 1    
    76   38   39 2    
    77   38   40 1    
    78   40   41 1    
    79   40   42 1    
    80   40  102 1    
    81   41  103 1    
    82   41  104 1    
    83   41  105 1    
    84   42   43 am   BACKBONE|DICT|INTERRES
    85   42  106 1    
    86   43   44 2    
    87   43   45 1    
    88   45   46 1    
    89   45   49 1    
    90   45  107 1    
    91   46   47 1    
    92   46  108 1    
    93   46  109 1    
    94   47   48 1    
    95   48  110 1    
    96   48  111 1    
    97   49   50 am   BACKBONE|DICT|INTERRES
    98   49  112 1    
    99   50   51 2    
   100   50   52 1    
   101   52   53 1    
   102   52   54 1    
   103   52  113 1    
   104   53  114 1    
   105   53  115 1    
   106   53  116 1    
   107   54   55 am   BACKBONE|DICT|INTERRES
   108   54  117 1    
   109   55   56 2    
   110   55   57 1    
   111   57   58 1    
   112   57   59 1    
   113   57  118 1    
   114   58  119 1    
   115   58  120 1    
   116   58  121 1    
   117   59   60 am   BACKBONE|DICT|INTERRES
   118   59  122 1    
   119   60   61 2    
   120   60   62 1    
   121   62   63 1    
   122   62   64 1    
   123   62  123 1    
   124   63  124 1    
   125   63  125 1    
   126   63  126 1    
   127   64   65 am   BACKBONE|DICT|INTERRES
   128   64  127 1    
   129   65   66 2    
@<TRIPOS>SUBSTRUCTURE
     1 UNK         1 GROUP             0       ****    0 ROOT    
