@<TRIPOS>MOLECULE
3R134
127   129    1
SMALL
USER_CHARGES


@<TRIPOS>ATOM
      1 CA         37.3482  -47.5465  -55.2657 C.3       0 UNK        -0.1968 
      2 C          35.9349  -47.3643  -54.7355 C.2       0 UNK         0.4852 
      3 O          35.1304  -48.2935  -54.8181 O.2       0 UNK        -0.5359 
      4 N          35.6317  -46.1825  -54.1781 N.am      1 UNK        -0.4300 
      5 CA         34.3198  -45.7744  -53.6511 C.3       1 UNK         0.0863 
      6 C6         34.3629  -44.3463  -53.0593 C.3       11 UNK        -0.0953 
      7 S7         34.5958  -43.0944  -54.3650 S.3       11 UNK        -0.2369 
      8 C8         33.2743  -41.8963  -53.9920 C.3       11 UNK         0.0226 
      9 C9         31.8776  -42.4578  -54.2301 C.ar      11 UNK        -0.0699 
     10 C10        31.0798  -42.8454  -53.1488 C.ar      11 UNK        -0.0804 
     11 C11        29.7800  -43.3203  -53.3506 C.ar      11 UNK        -0.0871 
     12 C12        29.2800  -43.4042  -54.6550 C.ar      11 UNK        -0.1008 
     13 C13        30.0636  -43.0108  -55.7451 C.ar      11 UNK        -0.0735 
     14 C14        31.3633  -42.5431  -55.5273 C.ar      11 UNK        -0.0945 
     15 C15        29.4926  -43.0726  -57.1532 C.3       11 UNK         0.0169 
     16 S16        28.2913  -41.7334  -57.4235 S.3       11 UNK        -0.2669 
     17 C17        27.8086  -41.9856  -59.1658 C.3       11 UNK        -0.0850 
     18 CA         26.5411  -42.8819  -59.3079 C.3       10 UNK         0.0855 
     19 C          25.7667  -42.6562  -60.6453 C.2       10 UNK         0.5543 
     20 N          25.0653  -43.6519  -61.1737 N.am      10 UNK        -0.7343 
     21 O          25.7667  -41.5577  -61.1962 O.2       10 UNK        -0.5027 
     22 N          26.8195  -44.2943  -58.9842 N.am      10 UNK        -0.4495 
     23 C          27.5786  -45.1392  -59.6942 C.2       10 UNK         0.4903 
     24 O          28.1320  -44.8281  -60.7494 O.2       10 UNK        -0.4860 
     25 CA         27.7642  -46.5807  -59.1756 C.3       9 UNK         0.0227 
     26 CB         29.1930  -46.7939  -58.6427 C.3       9 UNK        -0.1964 
     27 N          26.7741  -47.0872  -58.2120 N.am      9 UNK        -0.4231 
     28 C          26.4659  -46.6483  -56.9841 C.2       9 UNK         0.5014 
     29 O          26.9337  -45.6307  -56.4760 O.2       9 UNK        -0.5270 
     30 CA         25.4523  -47.4826  -56.1841 C.3       8 UNK         0.0284 
     31 CB         24.0288  -47.3694  -56.7656 C.3       8 UNK        -0.1977 
     32 N          25.8703  -48.8782  -55.9983 N.am      8 UNK        -0.4342 
     33 C          26.0126  -49.8489  -56.9155 C.2       8 UNK         0.5039 
     34 O          25.7107  -49.7073  -58.1026 O.2       8 UNK        -0.5547 
     35 CA         26.6226  -51.1855  -56.4460 C.3       7 UNK         0.0281 
     36 CB         27.5772  -51.7715  -57.5026 C.3       7 UNK        -0.1963 
     37 N          27.3640  -51.0148  -55.1955 N.am      7 UNK        -0.4444 
     38 C          26.9833  -51.4631  -53.9912 C.2       7 UNK         0.5104 
     39 O          25.9937  -52.1717  -53.8062 O.2       7 UNK        -0.5100 
     40 CA         27.8234  -51.0185  -52.7753 C.3       6 UNK         0.0396 
     41 CB         28.7563  -52.1505  -52.3187 C.3       6 UNK        -0.1801 
     42 N          28.6078  -49.8017  -53.0191 N.am      6 UNK        -0.4747 
     43 C          28.0760  -48.5891  -53.2447 C.2       6 UNK         0.5012 
     44 O          26.8641  -48.3753  -53.2052 O.2       6 UNK        -0.5003 
     45 CA         29.0342  -47.4503  -53.6629 C.3       5 UNK         0.0782 
     46 C46        29.3123  -46.4727  -52.4940 C.3       11 UNK        -0.0868 
     47 S47        27.9818  -45.2372  -52.3158 S.3       11 UNK        -0.2515 
     48 C48        28.9162  -43.6794  -52.1429 C.3       11 UNK         0.0199 
     49 N          30.2727  -47.9357  -54.2873 N.am      5 UNK        -0.4607 
     50 C          30.3101  -48.5929  -55.4561 C.2       4 UNK         0.5031 
     51 O          29.3015  -48.9260  -56.0771 O.2       4 UNK        -0.5119 
     52 CA         31.6882  -48.9772  -56.0144 C.3       4 UNK         0.0263 
     53 CB         32.3437  -47.7787  -56.7180 C.3       4 UNK        -0.1967 
     54 N          32.6026  -49.5186  -55.0074 N.am      4 UNK        -0.4237 
     55 C          32.4091  -50.6629  -54.3350 C.2       3 UNK         0.4908 
     56 O          31.3966  -51.3542  -54.4377 O.2       3 UNK        -0.5102 
     57 CA         33.5337  -51.1180  -53.3947 C.3       3 UNK         0.0241 
     58 CB         34.6783  -51.7663  -54.1913 C.3       3 UNK        -0.1971 
     59 N          34.0532  -49.9939  -52.6181 N.am      3 UNK        -0.4139 
     60 C          33.6253  -49.6585  -51.3934 C.2       2 UNK         0.5016 
     61 O          32.8101  -50.3167  -50.7460 O.2       2 UNK        -0.5319 
     62 CA         34.1895  -48.3609  -50.7827 C.3       2 UNK         0.0286 
     63 CB         35.3982  -48.6707  -49.8849 C.3       2 UNK        -0.1963 
     64 N          34.5725  -47.3496  -51.7741 N.am      2 UNK        -0.4790 
     65 C          33.7231  -46.7637  -52.6309 C.2       1 UNK         0.5024 
     66 O          32.5194  -47.0138  -52.6730 O.2       1 UNK        -0.4888 
     67 H67        37.8347  -48.3774  -54.7557 H         1 UNK         0.0892 
     68 H68        37.3202  -47.7703  -56.3316 H         1 UNK         0.0892 
     69 H69        37.9574  -46.6545  -55.1213 H         1 UNK         0.0892 
     70 H70        36.3401  -45.4628  -54.1509 H         1 UNK         0.3107 
     71 H71        33.6322  -45.7625  -54.4973 H         1 UNK         0.0773 
     72 H72        35.1713  -44.2508  -52.3322 H         1 UNK         0.0680 
     73 H73        33.4453  -44.1254  -52.5135 H         1 UNK         0.0680 
     74 H74        33.3830  -41.5535  -52.9618 H         1 UNK         0.0650 
     75 H75        33.4175  -41.0152  -54.6190 H         1 UNK         0.0650 
     76 H76        31.4674  -42.7585  -52.1429 H         1 UNK         0.1397 
     77 H77        28.2712  -43.7565  -54.8259 H         1 UNK         0.1363 
     78 H78        31.9720  -42.2303  -56.3648 H         1 UNK         0.1355 
     79 H79        29.0026  -44.0341  -57.2947 H         1 UNK         0.0707 
     80 H80        30.2869  -43.0106  -57.8986 H         1 UNK         0.0707 
     81 H81        27.6274  -40.9884  -59.5702 H         1 UNK         0.1034 
     82 H82        28.6462  -42.3842  -59.7397 H         1 UNK         0.1034 
     83 H83        25.8300  -42.5536  -58.5490 H         1 UNK         0.0482 
     84 H84        25.0479  -44.5542  -60.7264 H         1 UNK         0.3460 
     85 H85        24.5567  -43.5000  -62.0304 H         1 UNK         0.3460 
     86 H86        26.4866  -44.6201  -58.0832 H         1 UNK         0.2989 
     87 H87        27.6530  -47.2174  -60.0545 H         1 UNK         0.0559 
     88 H88        29.3448  -46.3215  -57.6725 H         1 UNK         0.0848 
     89 H89        29.4075  -47.8564  -58.5311 H         1 UNK         0.0848 
     90 H90        29.9397  -46.3876  -59.3263 H         1 UNK         0.0848 
     91 H91        26.3217  -47.9608  -58.4780 H         1 UNK         0.3144 
     92 H92        25.4226  -47.0537  -55.1810 H         1 UNK         0.0727 
     93 H93        23.9604  -47.7648  -57.7792 H         1 UNK         0.0790 
     94 H94        23.7092  -46.3273  -56.8045 H         1 UNK         0.0790 
     95 H95        23.3076  -47.9059  -56.1491 H         1 UNK         0.0790 
     96 H96        26.1744  -49.0877  -55.0537 H         1 UNK         0.3215 
     97 H97        25.7938  -51.8827  -56.3087 H         1 UNK         0.0863 
     98 H98        28.0150  -52.7105  -57.1638 H         1 UNK         0.0808 
     99 H99        28.3931  -51.0840  -57.7307 H         1 UNK         0.0808 
    100 H100       27.0529  -51.9789  -58.4363 H         1 UNK         0.0808 
    101 H101       28.1809  -50.4133  -55.2583 H         1 UNK         0.3118 
    102 H102       27.1293  -50.8050  -51.9597 H         1 UNK         0.0546 
    103 H103       28.1826  -53.0315  -52.0282 H         1 UNK         0.0828 
    104 H104       29.3538  -51.8547  -51.4562 H         1 UNK         0.0828 
    105 H105       29.4377  -52.4582  -53.1117 H         1 UNK         0.0828 
    106 H106       29.6083  -49.9150  -53.1141 H         1 UNK         0.3005 
    107 H107       28.5157  -46.8932  -54.4481 H         1 UNK         0.1257 
    108 H108       30.2375  -45.9287  -52.6798 H         1 UNK         0.0775 
    109 H109       29.4625  -46.9974  -51.5485 H         1 UNK         0.0775 
    110 H110       28.2075  -42.8679  -51.9735 H         1 UNK         0.0840 
    111 H111       29.5249  -43.7464  -51.2397 H         1 UNK         0.0840 
    112 H112       31.1402  -47.7074  -53.8083 H         1 UNK         0.2987 
    113 H113       31.5321  -49.7594  -56.7603 H         1 UNK         0.0785 
    114 H114       33.3287  -48.0348  -57.1089 H         1 UNK         0.0798 
    115 H115       32.4592  -46.9296  -56.0461 H         1 UNK         0.0798 
    116 H116       31.7409  -47.4436  -57.5614 H         1 UNK         0.0798 
    117 H117       33.4903  -49.0311  -54.8920 H         1 UNK         0.3079 
    118 H118       33.1230  -51.8760  -52.7240 H         1 UNK         0.0794 
    119 H119       34.3152  -52.6129  -54.7756 H         1 UNK         0.0786 
    120 H120       35.4575  -52.1413  -53.5275 H         1 UNK         0.0786 
    121 H121       35.1412  -51.0645  -54.8863 H         1 UNK         0.0786 
    122 H122       34.6833  -49.3639  -53.1021 H         1 UNK         0.3032 
    123 H123       33.4002  -47.9317  -50.1610 H         1 UNK         0.1094 
    124 H124       35.7495  -47.7772  -49.3685 H         1 UNK         0.0794 
    125 H125       35.1377  -49.4030  -49.1191 H         1 UNK         0.0794 
    126 H126       36.2320  -49.0800  -50.4566 H         1 UNK         0.0794 
    127 H127       35.5497  -47.0983  -51.8199 H         1 UNK         0.3016 
@<TRIPOS>BOND
     1    1    2 1    
     2    1   67 1    
     3    1   68 1    
     4    1   69 1    
     5    2    3 2    
     6    2    4 am   BACKBONE|DICT|INTERRES
     7    4    5 1    
     8    4   70 1    
     9    5    6 1    
    10    5   65 1    
    11    5   71 1    
    12    6    7 1    
    13    6   72 1    
    14    6   73 1    
    15    7    8 1    
    16    8    9 1    
    17    8   74 1    
    18    8   75 1    
    19    9   10 ar   
    20    9   14 ar   
    21   10   11 ar   
    22   10   76 1    
    23   11   12 ar   
    24   11   48 1    
    25   12   13 ar   
    26   12   77 1    
    27   13   14 ar   
    28   13   15 1    
    29   14   78 1    
    30   15   16 1    
    31   15   79 1    
    32   15   80 1    
    33   16   17 1    
    34   17   18 1    
    35   17   81 1    
    36   17   82 1    
    37   18   19 1    
    38   18   22 1    
    39   18   83 1    
    40   19   20 am   BACKBONE|DICT|INTERRES
    41   19   21 2    
    42   20   84 1    
    43   20   85 1    
    44   22   23 am   BACKBONE|DICT|INTERRES
    45   22   86 1    
    46   23   24 2    
    47   23   25 1    
    48   25   26 1    
    49   25   27 1    
    50   25   87 1    
    51   26   88 1    
    52   26   89 1    
    53   26   90 1    
    54   27   28 am   BACKBONE|DICT|INTERRES
    55   27   91 1    
    56   28   29 2    
    57   28   30 1    
    58   30   31 1    
    59   30   32 1    
    60   30   92 1    
    61   31   93 1    
    62   31   94 1    
    63   31   95 1    
    64   32   33 am   BACKBONE|DICT|INTERRES
    65   32   96 1    
    66   33   34 2    
    67   33   35 1    
    68   35   36 1    
    69   35   37 1    
    70   35   97 1    
    71   36   98 1    
    72   36   99 1    
    73   36  100 1    
    74   37   38 am   BACKBONE|DICT|INTERRES
    75   37  101 1    
    76   38   39 2    
    77   38   40 1    
    78   40   41 1    
    79   40   42 1    
    80   40  102 1    
    81   41  103 1    
    82   41  104 1    
    83   41  105 1    
    84   42   43 am   BACKBONE|DICT|INTERRES
    85   42  106 1    
    86   43   44 2    
    87   43   45 1    
    88   45   46 1    
    89   45   49 1    
    90   45  107 1    
    91   46   47 1    
    92   46  108 1    
    93   46  109 1    
    94   47   48 1    
    95   48  110 1    
    96   48  111 1    
    97   49   50 am   BACKBONE|DICT|INTERRES
    98   49  112 1    
    99   50   51 2    
   100   50   52 1    
   101   52   53 1    
   102   52   54 1    
   103   52  113 1    
   104   53  114 1    
   105   53  115 1    
   106   53  116 1    
   107   54   55 am   BACKBONE|DICT|INTERRES
   108   54  117 1    
   109   55   56 2    
   110   55   57 1    
   111   57   58 1    
   112   57   59 1    
   113   57  118 1    
   114   58  119 1    
   115   58  120 1    
   116   58  121 1    
   117   59   60 am   BACKBONE|DICT|INTERRES
   118   59  122 1    
   119   60   61 2    
   120   60   62 1    
   121   62   63 1    
   122   62   64 1    
   123   62  123 1    
   124   63  124 1    
   125   63  125 1    
   126   63  126 1    
   127   64   65 am   BACKBONE|DICT|INTERRES
   128   64  127 1    
   129   65   66 2    
@<TRIPOS>SUBSTRUCTURE
     1 UNK         1 GROUP             0       ****    0 ROOT    
