@<TRIPOS>MOLECULE
3R134
127   129    1
SMALL
USER_CHARGES


@<TRIPOS>ATOM
      1 CA         31.0933  -46.0329  -47.6391 C.3       0 UNK        -0.1968 
      2 C          31.6901  -45.9554  -49.0371 C.2       0 UNK         0.4852 
      3 O          31.0444  -46.3792  -49.9956 O.2       0 UNK        -0.5359 
      4 N          32.9105  -45.4121  -49.1519 N.am      1 UNK        -0.4300 
      5 CA         33.6974  -45.2847  -50.3854 C.3       1 UNK         0.0863 
      6 C6         32.9959  -44.4084  -51.4662 C.3       11 UNK        -0.0953 
      7 S7         34.1882  -43.4507  -52.4580 S.3       11 UNK        -0.2369 
      8 C8         33.0842  -42.2791  -53.3055 C.3       11 UNK         0.0226 
      9 C9         32.2904  -42.9474  -54.4187 C.ar      11 UNK        -0.0699 
     10 C10        32.9391  -43.3567  -55.5868 C.ar      11 UNK        -0.0804 
     11 C11        32.2244  -43.9497  -56.6313 C.ar      11 UNK        -0.0871 
     12 C12        30.8410  -44.1191  -56.5016 C.ar      11 UNK        -0.1008 
     13 C13        30.1790  -43.7122  -55.3397 C.ar      11 UNK        -0.0735 
     14 C14        30.9101  -43.1326  -54.2980 C.ar      11 UNK        -0.0945 
     15 C15        28.6761  -43.9025  -55.2021 C.3       11 UNK         0.0169 
     16 S16        27.7568  -42.4210  -55.7228 S.3       11 UNK        -0.2669 
     17 C17        27.6161  -42.6779  -57.5270 C.3       11 UNK        -0.0850 
     18 CA         26.1919  -43.1288  -57.9494 C.3       10 UNK         0.0855 
     19 C          26.0285  -43.1450  -59.4990 C.2       10 UNK         0.5543 
     20 N          25.5713  -44.2262  -60.1208 N.am      10 UNK        -0.7343 
     21 O          26.3143  -42.1457  -60.1540 O.2       10 UNK        -0.5027 
     22 N          25.8084  -44.3898  -57.2955 N.am      10 UNK        -0.4495 
     23 C          24.5592  -44.7366  -56.9661 C.2       10 UNK         0.4903 
     24 O          23.5808  -44.0023  -57.1147 O.2       10 UNK        -0.4860 
     25 CA         24.3841  -46.1522  -56.3796 C.3       9 UNK         0.0227 
     26 CB         22.9203  -46.6397  -56.4194 C.3       9 UNK        -0.1964 
     27 N          25.2763  -47.1512  -56.9859 N.am      9 UNK        -0.4231 
     28 C          25.3495  -47.4907  -58.2853 C.2       9 UNK         0.5014 
     29 O          24.6810  -46.9481  -59.1665 O.2       9 UNK        -0.5270 
     30 CA         26.3490  -48.5899  -58.6967 C.3       8 UNK         0.0284 
     31 CB         27.4116  -48.0228  -59.6544 C.3       8 UNK        -0.1977 
     32 N          27.0094  -49.2282  -57.5538 N.am      8 UNK        -0.4342 
     33 C          26.4514  -50.1912  -56.8030 C.2       8 UNK         0.5039 
     34 O          25.3554  -50.6935  -57.0552 O.2       8 UNK        -0.5547 
     35 CA         27.2103  -50.6703  -55.5482 C.3       7 UNK         0.0281 
     36 CB         27.8897  -52.0219  -55.8225 C.3       7 UNK        -0.1963 
     37 N          28.2086  -49.7295  -55.0308 N.am      7 UNK        -0.4444 
     38 C          27.9705  -48.4721  -54.6300 C.2       7 UNK         0.5104 
     39 O          26.8517  -47.9583  -54.6098 O.2       7 UNK        -0.5100 
     40 CA         29.2009  -47.6171  -54.2810 C.3       6 UNK         0.0396 
     41 CB         29.5969  -47.8041  -52.8110 C.3       6 UNK        -0.1801 
     42 N          30.3557  -47.8892  -55.1431 N.am      6 UNK        -0.4747 
     43 C          30.3692  -47.7801  -56.4809 C.2       6 UNK         0.5012 
     44 O          29.3964  -47.4090  -57.1373 O.2       6 UNK        -0.5003 
     45 CA         31.6489  -48.2319  -57.2097 C.3       5 UNK         0.0782 
     46 C46        32.7273  -47.1235  -57.2680 C.3       11 UNK        -0.0868 
     47 S47        32.3960  -45.9440  -58.6191 S.3       11 UNK        -0.2515 
     48 C48        32.9661  -44.3689  -57.8983 C.3       11 UNK         0.0199 
     49 N          32.1685  -49.4562  -56.6007 N.am      5 UNK        -0.4607 
     50 C          31.7959  -50.6928  -56.9551 C.2       4 UNK         0.5031 
     51 O          31.0224  -50.9344  -57.8815 O.2       4 UNK        -0.5119 
     52 CA         32.3768  -51.8648  -56.1432 C.3       4 UNK         0.0263 
     53 CB         33.6281  -52.4276  -56.8361 C.3       4 UNK        -0.1967 
     54 N          32.7068  -51.5160  -54.7587 N.am      4 UNK        -0.4237 
     55 C          31.8036  -51.1930  -53.8229 C.2       3 UNK         0.4908 
     56 O          30.5894  -51.1633  -54.0224 O.2       3 UNK        -0.5102 
     57 CA         32.3518  -50.7908  -52.4429 C.3       3 UNK         0.0241 
     58 CB         32.6307  -52.0399  -51.5916 C.3       3 UNK        -0.1971 
     59 N          33.5489  -49.9390  -52.4730 N.am      3 UNK        -0.4139 
     60 C          33.6720  -48.7885  -53.1501 C.2       2 UNK         0.5016 
     61 O          32.8341  -48.3609  -53.9452 O.2       2 UNK        -0.5319 
     62 CA         34.9331  -47.9537  -52.8899 C.3       2 UNK         0.0286 
     63 CB         35.6361  -47.5904  -54.2095 C.3       2 UNK        -0.1963 
     64 N          34.5642  -46.7246  -52.1885 N.am      2 UNK        -0.4790 
     65 C          34.1823  -46.6606  -50.9061 C.2       1 UNK         0.5024 
     66 O          34.2389  -47.6275  -50.1408 O.2       1 UNK        -0.4888 
     67 H67        31.7600  -45.6140  -46.8856 H         1 UNK         0.0892 
     68 H68        30.1528  -45.4840  -47.6022 H         1 UNK         0.0892 
     69 H69        30.8930  -47.0709  -47.3751 H         1 UNK         0.0892 
     70 H70        33.3887  -45.1137  -48.3132 H         1 UNK         0.3107 
     71 H71        34.6033  -44.7666  -50.0667 H         1 UNK         0.0773 
     72 H72        32.3558  -45.0035  -52.1214 H         1 UNK         0.0680 
     73 H73        32.3340  -43.6872  -50.9841 H         1 UNK         0.0680 
     74 H74        33.6881  -41.4772  -53.7326 H         1 UNK         0.0650 
     75 H75        32.4222  -41.8068  -52.5781 H         1 UNK         0.0650 
     76 H76        34.0066  -43.2081  -55.6788 H         1 UNK         0.1397 
     77 H77        30.2791  -44.5751  -57.3045 H         1 UNK         0.1363 
     78 H78        30.4006  -42.8147  -53.3986 H         1 UNK         0.1355 
     79 H79        28.4285  -44.1186  -54.1617 H         1 UNK         0.0707 
     80 H80        28.3440  -44.7663  -55.7794 H         1 UNK         0.0707 
     81 H81        27.8727  -41.7309  -58.0057 H         1 UNK         0.1034 
     82 H82        28.3621  -43.3944  -57.8709 H         1 UNK         0.1034 
     83 H83        25.5046  -42.3542  -57.6037 H         1 UNK         0.0482 
     84 H84        25.2926  -45.0551  -59.6082 H         1 UNK         0.3460 
     85 H85        25.4711  -44.2058  -61.1229 H         1 UNK         0.3460 
     86 H86        26.5446  -45.0656  -57.1613 H         1 UNK         0.2989 
     87 H87        24.6790  -46.0823  -55.3316 H         1 UNK         0.0559 
     88 H88        22.5371  -46.6854  -57.4393 H         1 UNK         0.0848 
     89 H89        22.2682  -45.9705  -55.8568 H         1 UNK         0.0848 
     90 H90        22.8207  -47.6318  -55.9790 H         1 UNK         0.0848 
     91 H91        25.8870  -47.6279  -56.3283 H         1 UNK         0.3144 
     92 H92        25.7853  -49.3506  -59.2409 H         1 UNK         0.0727 
     93 H93        28.1649  -48.7696  -59.9059 H         1 UNK         0.0790 
     94 H94        26.9546  -47.6968  -60.5897 H         1 UNK         0.0790 
     95 H95        27.9216  -47.1572  -59.2314 H         1 UNK         0.0790 
     96 H96        27.9050  -48.8373  -57.2784 H         1 UNK         0.3215 
     97 H97        26.4659  -50.8145  -54.7626 H         1 UNK         0.0863 
     98 H98        27.1738  -52.7523  -56.2021 H         1 UNK         0.0808 
     99 H99        28.3234  -52.4400  -54.9139 H         1 UNK         0.0808 
    100 H100       28.6858  -51.9290  -56.5623 H         1 UNK         0.0808 
    101 H101       29.1569  -50.0831  -54.9401 H         1 UNK         0.3118 
    102 H102       28.9307  -46.5722  -54.4235 H         1 UNK         0.0546 
    103 H103       30.4759  -47.2109  -52.5570 H         1 UNK         0.0828 
    104 H104       29.8175  -48.8460  -52.5835 H         1 UNK         0.0828 
    105 H105       28.7911  -47.4899  -52.1466 H         1 UNK         0.0828 
    106 H106       31.2200  -48.1596  -54.6740 H         1 UNK         0.3005 
    107 H107       31.3574  -48.4666  -58.2367 H         1 UNK         0.1257 
    108 H108       33.7067  -47.5613  -57.4678 H         1 UNK         0.0775 
    109 H109       32.8219  -46.6107  -56.3088 H         1 UNK         0.0775 
    110 H110       34.0369  -44.4520  -57.7052 H         1 UNK         0.0840 
    111 H111       32.8482  -43.5819  -58.6441 H         1 UNK         0.0840 
    112 H112       32.7423  -49.3309  -55.7752 H         1 UNK         0.2987 
    113 H113       31.6173  -52.6496  -56.1177 H         1 UNK         0.0785 
    114 H114       33.4057  -52.7225  -57.8628 H         1 UNK         0.0798 
    115 H115       34.0033  -53.3126  -56.3217 H         1 UNK         0.0798 
    116 H116       34.4336  -51.6932  -56.8756 H         1 UNK         0.0798 
    117 H117       33.6846  -51.5058  -54.5071 H         1 UNK         0.3079 
    118 H118       31.5721  -50.2158  -51.9416 H         1 UNK         0.0794 
    119 H119       32.8937  -51.7723  -50.5680 H         1 UNK         0.0786 
    120 H120       33.4452  -52.6375  -52.0029 H         1 UNK         0.0786 
    121 H121       31.7497  -52.6815  -51.5389 H         1 UNK         0.0786 
    122 H122       34.2865  -50.1929  -51.8313 H         1 UNK         0.3032 
    123 H123       35.6298  -48.5240  -52.2714 H         1 UNK         0.1094 
    124 H124       34.9991  -46.9867  -54.8576 H         1 UNK         0.0794 
    125 H125       36.5530  -47.0296  -54.0277 H         1 UNK         0.0794 
    126 H126       35.9101  -48.4877  -54.7659 H         1 UNK         0.0794 
    127 H127       34.4739  -45.8886  -52.7509 H         1 UNK         0.3016 
@<TRIPOS>BOND
     1    1    2 1    
     2    1   67 1    
     3    1   68 1    
     4    1   69 1    
     5    2    3 2    
     6    2    4 am   BACKBONE|DICT|INTERRES
     7    4    5 1    
     8    4   70 1    
     9    5    6 1    
    10    5   65 1    
    11    5   71 1    
    12    6    7 1    
    13    6   72 1    
    14    6   73 1    
    15    7    8 1    
    16    8    9 1    
    17    8   74 1    
    18    8   75 1    
    19    9   10 ar   
    20    9   14 ar   
    21   10   11 ar   
    22   10   76 1    
    23   11   12 ar   
    24   11   48 1    
    25   12   13 ar   
    26   12   77 1    
    27   13   14 ar   
    28   13   15 1    
    29   14   78 1    
    30   15   16 1    
    31   15   79 1    
    32   15   80 1    
    33   16   17 1    
    34   17   18 1    
    35   17   81 1    
    36   17   82 1    
    37   18   19 1    
    38   18   22 1    
    39   18   83 1    
    40   19   20 am   BACKBONE|DICT|INTERRES
    41   19   21 2    
    42   20   84 1    
    43   20   85 1    
    44   22   23 am   BACKBONE|DICT|INTERRES
    45   22   86 1    
    46   23   24 2    
    47   23   25 1    
    48   25   26 1    
    49   25   27 1    
    50   25   87 1    
    51   26   88 1    
    52   26   89 1    
    53   26   90 1    
    54   27   28 am   BACKBONE|DICT|INTERRES
    55   27   91 1    
    56   28   29 2    
    57   28   30 1    
    58   30   31 1    
    59   30   32 1    
    60   30   92 1    
    61   31   93 1    
    62   31   94 1    
    63   31   95 1    
    64   32   33 am   BACKBONE|DICT|INTERRES
    65   32   96 1    
    66   33   34 2    
    67   33   35 1    
    68   35   36 1    
    69   35   37 1    
    70   35   97 1    
    71   36   98 1    
    72   36   99 1    
    73   36  100 1    
    74   37   38 am   BACKBONE|DICT|INTERRES
    75   37  101 1    
    76   38   39 2    
    77   38   40 1    
    78   40   41 1    
    79   40   42 1    
    80   40  102 1    
    81   41  103 1    
    82   41  104 1    
    83   41  105 1    
    84   42   43 am   BACKBONE|DICT|INTERRES
    85   42  106 1    
    86   43   44 2    
    87   43   45 1    
    88   45   46 1    
    89   45   49 1    
    90   45  107 1    
    91   46   47 1    
    92   46  108 1    
    93   46  109 1    
    94   47   48 1    
    95   48  110 1    
    96   48  111 1    
    97   49   50 am   BACKBONE|DICT|INTERRES
    98   49  112 1    
    99   50   51 2    
   100   50   52 1    
   101   52   53 1    
   102   52   54 1    
   103   52  113 1    
   104   53  114 1    
   105   53  115 1    
   106   53  116 1    
   107   54   55 am   BACKBONE|DICT|INTERRES
   108   54  117 1    
   109   55   56 2    
   110   55   57 1    
   111   57   58 1    
   112   57   59 1    
   113   57  118 1    
   114   58  119 1    
   115   58  120 1    
   116   58  121 1    
   117   59   60 am   BACKBONE|DICT|INTERRES
   118   59  122 1    
   119   60   61 2    
   120   60   62 1    
   121   62   63 1    
   122   62   64 1    
   123   62  123 1    
   124   63  124 1    
   125   63  125 1    
   126   63  126 1    
   127   64   65 am   BACKBONE|DICT|INTERRES
   128   64  127 1    
   129   65   66 2    
@<TRIPOS>SUBSTRUCTURE
     1 UNK         1 GROUP             0       ****    0 ROOT    
