@<TRIPOS>MOLECULE
3R134
127   129    1
SMALL
USER_CHARGES


@<TRIPOS>ATOM
      1 CA         28.3639  -45.2860  -50.9175 C.3       0 UNK        -0.1968 
      2 C          29.8334  -45.0651  -51.2448 C.2       0 UNK         0.4852 
      3 O          30.2005  -43.9860  -51.7105 O.2       0 UNK        -0.5359 
      4 N          30.6717  -46.0786  -51.0075 N.am      1 UNK        -0.4300 
      5 CA         32.1058  -46.0880  -51.2824 C.3       1 UNK         0.0863 
      6 C6         32.4152  -46.2110  -52.8009 C.3       11 UNK        -0.0953 
      7 S7         33.9815  -45.4067  -53.2742 S.3       11 UNK        -0.2369 
      8 C8         33.3930  -43.8431  -54.0051 C.3       11 UNK         0.0226 
      9 C9         32.5393  -44.0756  -55.2445 C.ar      11 UNK        -0.0699 
     10 C10        33.1224  -44.5423  -56.4253 C.ar      11 UNK        -0.0804 
     11 C11        32.3343  -44.8047  -57.5503 C.ar      11 UNK        -0.0871 
     12 C12        30.9545  -44.5865  -57.4897 C.ar      11 UNK        -0.1008 
     13 C13        30.3612  -44.1084  -56.3171 C.ar      11 UNK        -0.0735 
     14 C14        31.1611  -43.8460  -55.2020 C.ar      11 UNK        -0.0945 
     15 C15        28.8559  -43.9046  -56.2388 C.3       11 UNK         0.0169 
     16 S16        28.2929  -42.6148  -57.3976 S.3       11 UNK        -0.2669 
     17 C17        26.9772  -41.7759  -56.4426 C.3       11 UNK        -0.0850 
     18 CA         25.5458  -42.3049  -56.7216 C.3       10 UNK         0.0855 
     19 C          25.0257  -41.9233  -58.1406 C.2       10 UNK         0.5543 
     20 N          24.6245  -42.8639  -58.9883 N.am      10 UNK        -0.7343 
     21 O          24.9682  -40.7414  -58.4716 O.2       10 UNK        -0.5027 
     22 N          25.4301  -43.7292  -56.3821 N.am      10 UNK        -0.4495 
     23 C          24.2999  -44.3468  -56.0219 C.2       10 UNK         0.4903 
     24 O          23.2317  -43.7622  -55.8339 O.2       10 UNK        -0.4860 
     25 CA         24.3852  -45.8765  -55.8420 C.3       9 UNK         0.0227 
     26 CB         23.0093  -46.5637  -55.9687 C.3       9 UNK        -0.1964 
     27 N          25.3630  -46.5349  -56.7212 N.am      9 UNK        -0.4231 
     28 C          25.3985  -46.5057  -58.0659 C.2       9 UNK         0.5014 
     29 O          24.6477  -45.8114  -58.7526 O.2       9 UNK        -0.5270 
     30 CA         26.4485  -47.3823  -58.7787 C.3       8 UNK         0.0284 
     31 CB         27.5924  -46.5126  -59.3258 C.3       8 UNK        -0.1977 
     32 N          27.0020  -48.4417  -57.9293 N.am      8 UNK        -0.4342 
     33 C          26.3048  -49.5034  -57.4918 C.2       8 UNK         0.5039 
     34 O          25.1633  -49.7653  -57.8731 O.2       8 UNK        -0.5547 
     35 CA         26.9542  -50.4149  -56.4302 C.3       7 UNK         0.0281 
     36 CB         27.4081  -51.7380  -57.0674 C.3       7 UNK        -0.1963 
     37 N          28.0850  -49.8171  -55.7135 N.am      7 UNK        -0.4444 
     38 C          28.0487  -48.6927  -54.9794 C.2       7 UNK         0.5104 
     39 O          27.0238  -48.0406  -54.7766 O.2       7 UNK        -0.5100 
     40 CA         29.3928  -48.1720  -54.4308 C.3       6 UNK         0.0396 
     41 CB         29.6038  -48.7416  -53.0195 C.3       6 UNK        -0.1801 
     42 N          30.5575  -48.5051  -55.2646 N.am      6 UNK        -0.4747 
     43 C          30.6629  -48.3120  -56.5933 C.2       6 UNK         0.5012 
     44 O          29.8069  -47.7232  -57.2542 O.2       6 UNK        -0.5003 
     45 CA         31.8476  -48.9870  -57.3309 C.3       5 UNK         0.0782 
     46 C46        32.9310  -47.9739  -57.7782 C.3       11 UNK        -0.0868 
     47 S47        32.4306  -47.0169  -59.2504 S.3       11 UNK        -0.2515 
     48 C48        32.9762  -45.3298  -58.8273 C.3       11 UNK         0.0199 
     49 N          32.4550  -50.0898  -56.5774 N.am      5 UNK        -0.4607 
     50 C          31.8367  -51.1941  -56.1334 C.2       4 UNK         0.5031 
     51 O          30.6609  -51.4625  -56.3810 O.2       4 UNK        -0.5119 
     52 CA         32.6486  -52.1247  -55.2094 C.3       4 UNK         0.0263 
     53 CB         33.0909  -53.3829  -55.9733 C.3       4 UNK        -0.1967 
     54 N          33.8261  -51.4911  -54.5955 N.am      4 UNK        -0.4237 
     55 C          33.7944  -50.4336  -53.7710 C.2       3 UNK         0.4908 
     56 O          32.7540  -49.8724  -53.4199 O.2       3 UNK        -0.5102 
     57 CA         35.1587  -49.8571  -53.3629 C.3       3 UNK         0.0241 
     58 CB         35.7379  -49.0126  -54.5121 C.3       3 UNK        -0.1971 
     59 N          35.0395  -49.0034  -52.1834 N.am      3 UNK        -0.4139 
     60 C          35.0624  -49.4254  -50.9122 C.2       2 UNK         0.5016 
     61 O          35.2590  -50.5948  -50.5789 O.2       2 UNK        -0.5319 
     62 CA         34.8356  -48.3553  -49.8262 C.3       2 UNK         0.0286 
     63 CB         36.1806  -47.8419  -49.2868 C.3       2 UNK        -0.1963 
     64 N          34.0508  -47.2208  -50.3247 N.am      2 UNK        -0.4790 
     65 C          32.7234  -47.2542  -50.4946 C.2       1 UNK         0.5024 
     66 O          32.0031  -48.1734  -50.0943 O.2       1 UNK        -0.4888 
     67 H67        27.7625  -45.1974  -51.8220 H         1 UNK         0.0892 
     68 H68        28.0212  -44.5368  -50.2043 H         1 UNK         0.0892 
     69 H69        28.1853  -46.2713  -50.4872 H         1 UNK         0.0892 
     70 H70        30.3480  -46.9348  -50.5723 H         1 UNK         0.3107 
     71 H71        32.5180  -45.1562  -50.8887 H         1 UNK         0.0773 
     72 H72        31.6053  -45.7843  -53.3890 H         1 UNK         0.0680 
     73 H73        32.4630  -47.2511  -53.1244 H         1 UNK         0.0680 
     74 H74        32.8371  -43.2858  -53.2491 H         1 UNK         0.0650 
     75 H75        34.2547  -43.2292  -54.2701 H         1 UNK         0.0650 
     76 H76        34.1886  -44.7209  -56.4564 H         1 UNK         0.1397 
     77 H77        30.3393  -44.8026  -58.3524 H         1 UNK         0.1363 
     78 H78        30.7079  -43.4882  -54.2874 H         1 UNK         0.1355 
     79 H79        28.5662  -43.6491  -55.2187 H         1 UNK         0.0707 
     80 H80        28.3558  -44.8459  -56.4682 H         1 UNK         0.0707 
     81 H81        27.0312  -40.7081  -56.6633 H         1 UNK         0.1034 
     82 H82        27.1937  -41.8485  -55.3762 H         1 UNK         0.1034 
     83 H83        24.8896  -41.7644  -56.0367 H         1 UNK         0.0482 
     84 H84        24.6527  -43.8477  -58.7398 H         1 UNK         0.3460 
     85 H85        24.2858  -42.5909  -59.8967 H         1 UNK         0.3460 
     86 H86        26.2504  -44.2891  -56.5536 H         1 UNK         0.2989 
     87 H87        24.7416  -46.0394  -54.8239 H         1 UNK         0.0559 
     88 H88        23.0886  -47.6402  -55.8163 H         1 UNK         0.0848 
     89 H89        22.5646  -46.3964  -56.9503 H         1 UNK         0.0848 
     90 H90        22.3085  -46.1838  -55.2242 H         1 UNK         0.0848 
     91 H91        26.0351  -47.1246  -56.2372 H         1 UNK         0.3144 
     92 H92        25.9501  -47.8577  -59.6260 H         1 UNK         0.0727 
     93 H93        28.3165  -47.1098  -59.8804 H         1 UNK         0.0790 
     94 H94        28.1274  -45.9995  -58.5274 H         1 UNK         0.0790 
     95 H95        27.2131  -45.7482  -60.0055 H         1 UNK         0.0790 
     96 H96        27.9510  -48.2985  -57.5920 H         1 UNK         0.3215 
     97 H97        26.1840  -50.6377  -55.6889 H         1 UNK         0.0863 
     98 H98        27.7924  -52.4299  -56.3177 H         1 UNK         0.0808 
     99 H99        28.1927  -51.5785  -57.8084 H         1 UNK         0.0808 
    100 H100       26.5786  -52.2358  -57.5717 H         1 UNK         0.0808 
    101 H101       28.9822  -50.2753  -55.8379 H         1 UNK         0.3118 
    102 H102       29.3360  -47.0834  -54.3692 H         1 UNK         0.0546 
    103 H103       28.7961  -48.4409  -52.3510 H         1 UNK         0.0828 
    104 H104       30.5357  -48.3981  -52.5777 H         1 UNK         0.0828 
    105 H105       29.6336  -49.8321  -53.0267 H         1 UNK         0.0828 
    106 H106       31.3047  -49.0073  -54.7974 H         1 UNK         0.3005 
    107 H107       31.4195  -49.4435  -58.2263 H         1 UNK         0.1257 
    108 H108       33.8455  -48.5002  -58.0569 H         1 UNK         0.0775 
    109 H109       33.2111  -47.3181  -56.9529 H         1 UNK         0.0775 
    110 H110       34.0645  -45.3207  -58.7490 H         1 UNK         0.0840 
    111 H111       32.7248  -44.6614  -59.6520 H         1 UNK         0.0840 
    112 H112       33.4213  -49.9656  -56.3178 H         1 UNK         0.2987 
    113 H113       31.9812  -52.4304  -54.4008 H         1 UNK         0.0785 
    114 H114       33.7806  -53.1425  -56.7835 H         1 UNK         0.0798 
    115 H115       32.2336  -53.8925  -56.4160 H         1 UNK         0.0798 
    116 H116       33.5824  -54.0974  -55.3126 H         1 UNK         0.0798 
    117 H117       34.7240  -51.8821  -54.8447 H         1 UNK         0.3079 
    118 H118       35.8412  -50.6816  -53.1454 H         1 UNK         0.0794 
    119 H119       35.0738  -48.1908  -54.7859 H         1 UNK         0.0786 
    120 H120       35.8996  -49.6152  -55.4067 H         1 UNK         0.0786 
    121 H121       36.7021  -48.5830  -54.2391 H         1 UNK         0.0786 
    122 H122       34.8202  -48.0337  -52.3554 H         1 UNK         0.3032 
    123 H123       34.2948  -48.8303  -49.0040 H         1 UNK         0.1094 
    124 H124       36.7714  -47.3565  -50.0647 H         1 UNK         0.0794 
    125 H125       36.0360  -47.1258  -48.4776 H         1 UNK         0.0794 
    126 H126       36.7787  -48.6626  -48.8880 H         1 UNK         0.0794 
    127 H127       34.5665  -46.4214  -50.6675 H         1 UNK         0.3016 
@<TRIPOS>BOND
     1    1    2 1    
     2    1   67 1    
     3    1   68 1    
     4    1   69 1    
     5    2    3 2    
     6    2    4 am   BACKBONE|DICT|INTERRES
     7    4    5 1    
     8    4   70 1    
     9    5    6 1    
    10    5   65 1    
    11    5   71 1    
    12    6    7 1    
    13    6   72 1    
    14    6   73 1    
    15    7    8 1    
    16    8    9 1    
    17    8   74 1    
    18    8   75 1    
    19    9   10 ar   
    20    9   14 ar   
    21   10   11 ar   
    22   10   76 1    
    23   11   12 ar   
    24   11   48 1    
    25   12   13 ar   
    26   12   77 1    
    27   13   14 ar   
    28   13   15 1    
    29   14   78 1    
    30   15   16 1    
    31   15   79 1    
    32   15   80 1    
    33   16   17 1    
    34   17   18 1    
    35   17   81 1    
    36   17   82 1    
    37   18   19 1    
    38   18   22 1    
    39   18   83 1    
    40   19   20 am   BACKBONE|DICT|INTERRES
    41   19   21 2    
    42   20   84 1    
    43   20   85 1    
    44   22   23 am   BACKBONE|DICT|INTERRES
    45   22   86 1    
    46   23   24 2    
    47   23   25 1    
    48   25   26 1    
    49   25   27 1    
    50   25   87 1    
    51   26   88 1    
    52   26   89 1    
    53   26   90 1    
    54   27   28 am   BACKBONE|DICT|INTERRES
    55   27   91 1    
    56   28   29 2    
    57   28   30 1    
    58   30   31 1    
    59   30   32 1    
    60   30   92 1    
    61   31   93 1    
    62   31   94 1    
    63   31   95 1    
    64   32   33 am   BACKBONE|DICT|INTERRES
    65   32   96 1    
    66   33   34 2    
    67   33   35 1    
    68   35   36 1    
    69   35   37 1    
    70   35   97 1    
    71   36   98 1    
    72   36   99 1    
    73   36  100 1    
    74   37   38 am   BACKBONE|DICT|INTERRES
    75   37  101 1    
    76   38   39 2    
    77   38   40 1    
    78   40   41 1    
    79   40   42 1    
    80   40  102 1    
    81   41  103 1    
    82   41  104 1    
    83   41  105 1    
    84   42   43 am   BACKBONE|DICT|INTERRES
    85   42  106 1    
    86   43   44 2    
    87   43   45 1    
    88   45   46 1    
    89   45   49 1    
    90   45  107 1    
    91   46   47 1    
    92   46  108 1    
    93   46  109 1    
    94   47   48 1    
    95   48  110 1    
    96   48  111 1    
    97   49   50 am   BACKBONE|DICT|INTERRES
    98   49  112 1    
    99   50   51 2    
   100   50   52 1    
   101   52   53 1    
   102   52   54 1    
   103   52  113 1    
   104   53  114 1    
   105   53  115 1    
   106   53  116 1    
   107   54   55 am   BACKBONE|DICT|INTERRES
   108   54  117 1    
   109   55   56 2    
   110   55   57 1    
   111   57   58 1    
   112   57   59 1    
   113   57  118 1    
   114   58  119 1    
   115   58  120 1    
   116   58  121 1    
   117   59   60 am   BACKBONE|DICT|INTERRES
   118   59  122 1    
   119   60   61 2    
   120   60   62 1    
   121   62   63 1    
   122   62   64 1    
   123   62  123 1    
   124   63  124 1    
   125   63  125 1    
   126   63  126 1    
   127   64   65 am   BACKBONE|DICT|INTERRES
   128   64  127 1    
   129   65   66 2    
@<TRIPOS>SUBSTRUCTURE
     1 UNK         1 GROUP             0       ****    0 ROOT    
