@<TRIPOS>MOLECULE
3R134
127   129    1
SMALL
USER_CHARGES


@<TRIPOS>ATOM
      1 CA         36.6265  -45.0208  -47.5694 C.3       0 UNK        -0.1968 
      2 C          36.0748  -45.0738  -48.9867 C.2       0 UNK         0.4852 
      3 O          36.8403  -44.9550  -49.9449 O.2       0 UNK        -0.5359 
      4 N          34.7532  -45.2429  -49.1263 N.am      1 UNK        -0.4300 
      5 CA         34.0586  -45.3863  -50.4079 C.3       1 UNK         0.0863 
      6 C6         32.5374  -45.1368  -50.2369 C.3       11 UNK        -0.0953 
      7 S7         31.6309  -45.0252  -51.8149 S.3       11 UNK        -0.2369 
      8 C8         31.9328  -43.2919  -52.2672 C.3       11 UNK         0.0226 
      9 C9         31.5192  -43.0310  -53.7058 C.ar      11 UNK        -0.0699 
     10 C10        32.3146  -43.5019  -54.7554 C.ar      11 UNK        -0.0804 
     11 C11        31.9413  -43.2751  -56.0827 C.ar      11 UNK        -0.0871 
     12 C12        30.7857  -42.5412  -56.3552 C.ar      11 UNK        -0.1008 
     13 C13        29.9683  -42.0889  -55.3166 C.ar      11 UNK        -0.0735 
     14 C14        30.3415  -42.3330  -53.9913 C.ar      11 UNK        -0.0945 
     15 C15        28.6712  -41.3597  -55.6309 C.3       11 UNK         0.0169 
     16 S16        27.3109  -42.5327  -55.9343 S.3       11 UNK        -0.2669 
     17 C17        27.7737  -43.2126  -57.5665 C.3       11 UNK        -0.0850 
     18 CA         26.5510  -43.7593  -58.3393 C.3       10 UNK         0.0855 
     19 C          26.9283  -44.1071  -59.8028 C.2       10 UNK         0.5543 
     20 N          26.6768  -43.2023  -60.7388 N.am      10 UNK        -0.7343 
     21 O          27.4850  -45.1644  -60.0902 O.2       10 UNK        -0.5027 
     22 N          25.9754  -44.9228  -57.6586 N.am      10 UNK        -0.4495 
     23 C          24.6914  -45.2865  -57.7363 C.2       10 UNK         0.4903 
     24 O          23.8242  -44.6363  -58.3237 O.2       10 UNK        -0.4860 
     25 CA         24.3324  -46.6076  -57.0350 C.3       9 UNK         0.0227 
     26 CB         22.8563  -47.0204  -57.2203 C.3       9 UNK        -0.1964 
     27 N          25.2399  -47.6935  -57.4201 N.am      9 UNK        -0.4231 
     28 C          25.4208  -48.2127  -58.6469 C.2       9 UNK         0.5014 
     29 O          24.7939  -47.8518  -59.6442 O.2       9 UNK        -0.5270 
     30 CA         26.4737  -49.3292  -58.8087 C.3       8 UNK         0.0284 
     31 CB         27.6721  -48.8224  -59.6289 C.3       8 UNK        -0.1977 
     32 N          26.9587  -49.8847  -57.5420 N.am      8 UNK        -0.4342 
     33 C          26.2273  -50.6263  -56.6986 C.2       8 UNK         0.5039 
     34 O          25.0828  -51.0101  -56.9422 O.2       8 UNK        -0.5547 
     35 CA         26.8568  -50.9622  -55.3362 C.3       7 UNK         0.0281 
     36 CB         27.5970  -52.3068  -55.4084 C.3       7 UNK        -0.1963 
     37 N          27.7583  -49.9211  -54.8242 N.am      7 UNK        -0.4444 
     38 C          27.3917  -48.6664  -54.5180 C.2       7 UNK         0.5104 
     39 O          26.2441  -48.2412  -54.6493 O.2       7 UNK        -0.5100 
     40 CA         28.4943  -47.7095  -54.0289 C.3       6 UNK         0.0396 
     41 CB         28.9030  -48.0255  -52.5819 C.3       6 UNK        -0.1801 
     42 N          29.6732  -47.7343  -54.8944 N.am      6 UNK        -0.4747 
     43 C          29.6865  -47.3361  -56.1761 C.2       6 UNK         0.5012 
     44 O          28.7222  -46.8170  -56.7417 O.2       6 UNK        -0.5003 
     45 CA         30.9722  -47.6435  -56.9724 C.3       5 UNK         0.0782 
     46 C46        32.0512  -46.5422  -56.8141 C.3       11 UNK        -0.0868 
     47 S47        31.8831  -45.2147  -58.0506 S.3       11 UNK        -0.2515 
     48 C48        32.7604  -43.8438  -57.2303 C.3       11 UNK         0.0199 
     49 N          31.5085  -48.9608  -56.6182 N.am      5 UNK        -0.4607 
     50 C          30.9457  -50.1291  -56.9519 C.2       4 UNK         0.5031 
     51 O          29.9102  -50.2258  -57.6082 O.2       4 UNK        -0.5119 
     52 CA         31.6424  -51.4032  -56.4444 C.3       4 UNK         0.0263 
     53 CB         32.7666  -51.8216  -57.4051 C.3       4 UNK        -0.1967 
     54 N          32.1820  -51.2573  -55.0897 N.am      4 UNK        -0.4237 
     55 C          31.4267  -51.0928  -53.9945 C.2       3 UNK         0.4908 
     56 O          30.1977  -51.0805  -54.0077 O.2       3 UNK        -0.5102 
     57 CA         32.1588  -50.8586  -52.6643 C.3       3 UNK         0.0241 
     58 CB         32.5354  -52.1987  -52.0127 C.3       3 UNK        -0.1971 
     59 N          33.3498  -50.0097  -52.7723 N.am      3 UNK        -0.4139 
     60 C          33.3619  -48.7573  -53.2490 C.2       2 UNK         0.5016 
     61 O          32.3843  -48.1977  -53.7519 O.2       2 UNK        -0.5319 
     62 CA         34.6959  -48.0012  -53.1613 C.3       2 UNK         0.0286 
     63 CB         35.2071  -47.6258  -54.5619 C.3       2 UNK        -0.1963 
     64 N          34.5345  -46.7858  -52.3655 N.am      2 UNK        -0.4790 
     65 C          34.3620  -46.7635  -51.0371 C.2       1 UNK         0.5024 
     66 O          34.4165  -47.7676  -50.3217 O.2       1 UNK        -0.4888 
     67 H67        37.3472  -45.8239  -47.4175 H         1 UNK         0.0892 
     68 H68        37.1331  -44.0711  -47.3991 H         1 UNK         0.0892 
     69 H69        35.8409  -45.1245  -46.8211 H         1 UNK         0.0892 
     70 H70        34.1818  -45.3676  -48.3029 H         1 UNK         0.3107 
     71 H71        34.4560  -44.6161  -51.0723 H         1 UNK         0.0773 
     72 H72        32.3680  -44.2110  -49.6845 H         1 UNK         0.0680 
     73 H73        32.0839  -45.9294  -49.6387 H         1 UNK         0.0680 
     74 H74        32.9908  -43.0548  -52.1504 H         1 UNK         0.0650 
     75 H75        31.3900  -42.6404  -51.5806 H         1 UNK         0.0650 
     76 H76        33.2113  -44.0646  -54.5356 H         1 UNK         0.1397 
     77 H77        30.5040  -42.3603  -57.3829 H         1 UNK         0.1363 
     78 H78        29.7111  -41.9871  -53.1835 H         1 UNK         0.1355 
     79 H79        28.8004  -40.7054  -56.4944 H         1 UNK         0.0707 
     80 H80        28.3960  -40.7114  -54.7977 H         1 UNK         0.0707 
     81 H81        28.2523  -42.4207  -58.1455 H         1 UNK         0.1034 
     82 H82        28.5240  -43.9947  -57.4290 H         1 UNK         0.1034 
     83 H83        25.7992  -42.9671  -58.3656 H         1 UNK         0.0482 
     84 H84        26.2276  -42.3282  -60.5134 H         1 UNK         0.3460 
     85 H85        26.9297  -43.4034  -61.6936 H         1 UNK         0.3460 
     86 H86        26.6375  -45.5416  -57.2092 H         1 UNK         0.2989 
     87 H87        24.4928  -46.4414  -55.9688 H         1 UNK         0.0559 
     88 H88        22.1866  -46.2568  -56.8230 H         1 UNK         0.0848 
     89 H89        22.6363  -47.9496  -56.6948 H         1 UNK         0.0848 
     90 H90        22.5998  -47.1601  -58.2708 H         1 UNK         0.0848 
     91 H91        25.8018  -48.0627  -56.6600 H         1 UNK         0.3144 
     92 H92        25.9989  -50.1382  -59.3675 H         1 UNK         0.0727 
     93 H93        28.1995  -48.0175  -59.1161 H         1 UNK         0.0790 
     94 H94        27.3492  -48.4311  -60.5946 H         1 UNK         0.0790 
     95 H95        28.3864  -49.6216  -59.8270 H         1 UNK         0.0790 
     96 H96        27.9269  -49.6947  -57.3034 H         1 UNK         0.3215 
     97 H97        26.0393  -51.0635  -54.6192 H         1 UNK         0.0863 
     98 H98        27.9594  -52.6139  -54.4273 H         1 UNK         0.0808 
     99 H99        28.4521  -52.2584  -56.0830 H         1 UNK         0.0808 
    100 H100       26.9387  -53.0974  -55.7711 H         1 UNK         0.0808 
    101 H101       28.7181  -50.2091  -54.6382 H         1 UNK         0.3118 
    102 H102       28.0912  -46.6947  -54.0500 H         1 UNK         0.0546 
    103 H103       29.3214  -49.0270  -52.4851 H         1 UNK         0.0828 
    104 H104       28.0440  -47.9646  -51.9127 H         1 UNK         0.0828 
    105 H105       29.6484  -47.3184  -52.2184 H         1 UNK         0.0828 
    106 H106       30.5339  -48.0999  -54.4951 H         1 UNK         0.3005 
    107 H107       30.6839  -47.6989  -58.0252 H         1 UNK         0.1257 
    108 H108       32.0555  -46.1329  -55.8022 H         1 UNK         0.0775 
    109 H109       33.0455  -46.9647  -56.9657 H         1 UNK         0.0775 
    110 H110       33.7376  -44.1873  -56.8869 H         1 UNK         0.0840 
    111 H111       32.9512  -43.0567  -57.9612 H         1 UNK         0.0840 
    112 H112       32.3095  -48.9659  -56.0035 H         1 UNK         0.2987 
    113 H113       30.8977  -52.2016  -56.4254 H         1 UNK         0.0785 
    114 H114       32.3831  -51.9548  -58.4178 H         1 UNK         0.0798 
    115 H115       33.2142  -52.7688  -57.1035 H         1 UNK         0.0798 
    116 H116       33.5597  -51.0743  -57.4529 H         1 UNK         0.0798 
    117 H117       33.1864  -51.2588  -54.9882 H         1 UNK         0.3079 
    118 H118       31.4606  -50.3447  -52.0004 H         1 UNK         0.0794 
    119 H119       32.9496  -52.0526  -51.0148 H         1 UNK         0.0786 
    120 H120       33.2696  -52.7461  -52.6052 H         1 UNK         0.0786 
    121 H121       31.6592  -52.8402  -51.9056 H         1 UNK         0.0786 
    122 H122       34.2000  -50.3823  -52.3741 H         1 UNK         0.3032 
    123 H123       35.4435  -48.6367  -52.6809 H         1 UNK         0.1094 
    124 H124       34.5329  -46.9330  -55.0657 H         1 UNK         0.0794 
    125 H125       36.1894  -47.1558  -54.5107 H         1 UNK         0.0794 
    126 H126       35.3041  -48.5089  -55.1949 H         1 UNK         0.0794 
    127 H127       34.4208  -45.9259  -52.8811 H         1 UNK         0.3016 
@<TRIPOS>BOND
     1    1    2 1    
     2    1   67 1    
     3    1   68 1    
     4    1   69 1    
     5    2    3 2    
     6    2    4 am   BACKBONE|DICT|INTERRES
     7    4    5 1    
     8    4   70 1    
     9    5    6 1    
    10    5   65 1    
    11    5   71 1    
    12    6    7 1    
    13    6   72 1    
    14    6   73 1    
    15    7    8 1    
    16    8    9 1    
    17    8   74 1    
    18    8   75 1    
    19    9   10 ar   
    20    9   14 ar   
    21   10   11 ar   
    22   10   76 1    
    23   11   12 ar   
    24   11   48 1    
    25   12   13 ar   
    26   12   77 1    
    27   13   14 ar   
    28   13   15 1    
    29   14   78 1    
    30   15   16 1    
    31   15   79 1    
    32   15   80 1    
    33   16   17 1    
    34   17   18 1    
    35   17   81 1    
    36   17   82 1    
    37   18   19 1    
    38   18   22 1    
    39   18   83 1    
    40   19   20 am   BACKBONE|DICT|INTERRES
    41   19   21 2    
    42   20   84 1    
    43   20   85 1    
    44   22   23 am   BACKBONE|DICT|INTERRES
    45   22   86 1    
    46   23   24 2    
    47   23   25 1    
    48   25   26 1    
    49   25   27 1    
    50   25   87 1    
    51   26   88 1    
    52   26   89 1    
    53   26   90 1    
    54   27   28 am   BACKBONE|DICT|INTERRES
    55   27   91 1    
    56   28   29 2    
    57   28   30 1    
    58   30   31 1    
    59   30   32 1    
    60   30   92 1    
    61   31   93 1    
    62   31   94 1    
    63   31   95 1    
    64   32   33 am   BACKBONE|DICT|INTERRES
    65   32   96 1    
    66   33   34 2    
    67   33   35 1    
    68   35   36 1    
    69   35   37 1    
    70   35   97 1    
    71   36   98 1    
    72   36   99 1    
    73   36  100 1    
    74   37   38 am   BACKBONE|DICT|INTERRES
    75   37  101 1    
    76   38   39 2    
    77   38   40 1    
    78   40   41 1    
    79   40   42 1    
    80   40  102 1    
    81   41  103 1    
    82   41  104 1    
    83   41  105 1    
    84   42   43 am   BACKBONE|DICT|INTERRES
    85   42  106 1    
    86   43   44 2    
    87   43   45 1    
    88   45   46 1    
    89   45   49 1    
    90   45  107 1    
    91   46   47 1    
    92   46  108 1    
    93   46  109 1    
    94   47   48 1    
    95   48  110 1    
    96   48  111 1    
    97   49   50 am   BACKBONE|DICT|INTERRES
    98   49  112 1    
    99   50   51 2    
   100   50   52 1    
   101   52   53 1    
   102   52   54 1    
   103   52  113 1    
   104   53  114 1    
   105   53  115 1    
   106   53  116 1    
   107   54   55 am   BACKBONE|DICT|INTERRES
   108   54  117 1    
   109   55   56 2    
   110   55   57 1    
   111   57   58 1    
   112   57   59 1    
   113   57  118 1    
   114   58  119 1    
   115   58  120 1    
   116   58  121 1    
   117   59   60 am   BACKBONE|DICT|INTERRES
   118   59  122 1    
   119   60   61 2    
   120   60   62 1    
   121   62   63 1    
   122   62   64 1    
   123   62  123 1    
   124   63  124 1    
   125   63  125 1    
   126   63  126 1    
   127   64   65 am   BACKBONE|DICT|INTERRES
   128   64  127 1    
   129   65   66 2    
@<TRIPOS>SUBSTRUCTURE
     1 UNK         1 GROUP             0       ****    0 ROOT    
