@<TRIPOS>MOLECULE
3R134
127   129    1
SMALL
USER_CHARGES


@<TRIPOS>ATOM
      1 CA         29.4213  -43.8839  -52.5604 C.3       0 UNK        -0.1968 
      2 C          30.5863  -44.3239  -51.6893 C.2       0 UNK         0.4852 
      3 O          30.4077  -44.5351  -50.4884 O.2       0 UNK        -0.5359 
      4 N          31.7769  -44.4554  -52.2858 N.am      1 UNK        -0.4300 
      5 CA         32.9945  -44.9504  -51.6355 C.3       1 UNK         0.0863 
      6 C6         34.2587  -44.6337  -52.4727 C.3       11 UNK        -0.0953 
      7 S7         34.4831  -42.8462  -52.7487 S.3       11 UNK        -0.2369 
      8 C8         34.4504  -42.7486  -54.5647 C.3       11 UNK         0.0226 
      9 C9         33.0478  -42.9167  -55.1330 C.ar      11 UNK        -0.0699 
     10 C10        32.6589  -44.1229  -55.7243 C.ar      11 UNK        -0.0804 
     11 C11        31.3967  -44.2532  -56.3224 C.ar      11 UNK        -0.0871 
     12 C12        30.5282  -43.1552  -56.3119 C.ar      11 UNK        -0.1008 
     13 C13        30.8966  -41.9500  -55.7062 C.ar      11 UNK        -0.0735 
     14 C14        32.1575  -41.8408  -55.1144 C.ar      11 UNK        -0.0945 
     15 C15        29.9637  -40.7455  -55.7325 C.3       11 UNK         0.0169 
     16 S16        28.5403  -40.9361  -54.6088 S.3       11 UNK        -0.2669 
     17 C17        27.2427  -41.5831  -55.7225 C.3       11 UNK        -0.0850 
     18 CA         26.9294  -43.0872  -55.4853 C.3       10 UNK         0.0855 
     19 C          25.8426  -43.3161  -54.3935 C.2       10 UNK         0.5543 
     20 N          26.0762  -42.8348  -53.1810 N.am      10 UNK        -0.7343 
     21 O          24.7866  -43.8997  -54.6321 O.2       10 UNK        -0.5027 
     22 N          26.6207  -43.7560  -56.7572 N.am      10 UNK        -0.4495 
     23 C          26.7731  -45.0637  -56.9893 C.2       10 UNK         0.4903 
     24 O          27.2641  -45.8550  -56.1847 O.2       10 UNK        -0.4860 
     25 CA         26.3375  -45.5451  -58.3777 C.3       9 UNK         0.0227 
     26 CB         27.3535  -45.1106  -59.4506 C.3       9 UNK        -0.1964 
     27 N          26.2203  -47.0019  -58.4017 N.am      9 UNK        -0.4231 
     28 C          25.2967  -47.6873  -59.0861 C.2       9 UNK         0.5014 
     29 O          24.3872  -47.1533  -59.7235 O.2       9 UNK        -0.5270 
     30 CA         25.3998  -49.2204  -59.1009 C.3       8 UNK         0.0284 
     31 CB         26.2968  -49.6743  -60.2656 C.3       8 UNK        -0.1977 
     32 N          25.9301  -49.7772  -57.8535 N.am      8 UNK        -0.4342 
     33 C          25.2717  -50.6304  -57.0555 C.2       8 UNK         0.5039 
     34 O          24.1022  -50.9720  -57.2392 O.2       8 UNK        -0.5547 
     35 CA         26.0372  -51.2482  -55.8682 C.3       7 UNK         0.0281 
     36 CB         26.4299  -52.7010  -56.1848 C.3       7 UNK        -0.1963 
     37 N          27.2435  -50.5082  -55.4996 N.am      7 UNK        -0.4444 
     38 C          27.2514  -49.3552  -54.8184 C.2       7 UNK         0.5104 
     39 O          26.2399  -48.8343  -54.3482 O.2       7 UNK        -0.5100 
     40 CA         28.6159  -48.6627  -54.6380 C.3       6 UNK         0.0396 
     41 CB         29.1774  -48.9667  -53.2420 C.3       6 UNK        -0.1801 
     42 N          29.6270  -49.0026  -55.6500 N.am      6 UNK        -0.4747 
     43 C          29.4921  -48.8485  -56.9790 C.2       6 UNK         0.5012 
     44 O          28.4526  -48.4671  -57.5157 O.2       6 UNK        -0.5003 
     45 CA         30.6939  -49.1986  -57.8807 C.3       5 UNK         0.0782 
     46 C46        31.3681  -47.9268  -58.4525 C.3       11 UNK        -0.0868 
     47 S47        32.1769  -46.8560  -57.2094 S.3       11 UNK        -0.2515 
     48 C48        30.9244  -45.5342  -57.0166 C.3       11 UNK         0.0199 
     49 N          31.6555  -50.1063  -57.2506 N.am      5 UNK        -0.4607 
     50 C          31.3991  -51.3815  -56.9270 C.2       4 UNK         0.5031 
     51 O          30.3292  -51.9409  -57.1706 O.2       4 UNK        -0.5119 
     52 CA         32.5028  -52.1641  -56.1900 C.3       4 UNK         0.0263 
     53 CB         33.2384  -53.0949  -57.1678 C.3       4 UNK        -0.1967 
     54 N          33.4878  -51.3353  -55.4815 N.am      4 UNK        -0.4237 
     55 C          33.2082  -50.4739  -54.4941 C.2       3 UNK         0.4908 
     56 O          32.0639  -50.2160  -54.1116 O.2       3 UNK        -0.5102 
     57 CA         34.4064  -49.7611  -53.8573 C.3       3 UNK         0.0241 
     58 CB         34.9228  -48.6305  -54.7660 C.3       3 UNK        -0.1971 
     59 N          33.9861  -49.1914  -52.5835 N.am      3 UNK        -0.4139 
     60 C          34.7125  -49.0998  -51.4672 C.2       2 UNK         0.5016 
     61 O          35.8770  -49.4932  -51.3717 O.2       2 UNK        -0.5319 
     62 CA         34.0224  -48.4080  -50.2724 C.3       2 UNK         0.0286 
     63 CB         34.8091  -48.5721  -48.9584 C.3       2 UNK        -0.1963 
     64 N          33.8247  -46.9777  -50.5314 N.am      2 UNK        -0.4790 
     65 C          32.9082  -46.4669  -51.3655 C.2       1 UNK         0.5024 
     66 O          32.0668  -47.1580  -51.9449 O.2       1 UNK        -0.4888 
     67 H67        29.7226  -43.7552  -53.5990 H         1 UNK         0.0892 
     68 H68        28.6235  -44.6256  -52.5284 H         1 UNK         0.0892 
     69 H69        29.0256  -42.9350  -52.2007 H         1 UNK         0.0892 
     70 H70        31.8641  -44.2575  -53.2727 H         1 UNK         0.3107 
     71 H71        33.0850  -44.4498  -50.6690 H         1 UNK         0.0773 
     72 H72        34.2288  -45.1598  -53.4285 H         1 UNK         0.0680 
     73 H73        35.1574  -44.9894  -51.9657 H         1 UNK         0.0680 
     74 H74        35.1327  -43.4901  -54.9834 H         1 UNK         0.0650 
     75 H75        34.8438  -41.7765  -54.8656 H         1 UNK         0.0650 
     76 H76        33.3594  -44.9452  -55.7343 H         1 UNK         0.1397 
     77 H77        29.5605  -43.2354  -56.7871 H         1 UNK         0.1363 
     78 H78        32.4610  -40.9077  -54.6593 H         1 UNK         0.1355 
     79 H79        30.5063  -39.8480  -55.4315 H         1 UNK         0.0707 
     80 H80        29.6336  -40.5557  -56.7543 H         1 UNK         0.0707 
     81 H81        26.3456  -40.9709  -55.6096 H         1 UNK         0.1034 
     82 H82        27.5619  -41.4183  -56.7521 H         1 UNK         0.1034 
     83 H83        27.8328  -43.5661  -55.1051 H         1 UNK         0.0482 
     84 H84        26.9137  -42.3052  -52.9950 H         1 UNK         0.3460 
     85 H85        25.3855  -42.9612  -52.4581 H         1 UNK         0.3460 
     86 H86        26.1708  -43.1885  -57.4603 H         1 UNK         0.2989 
     87 H87        25.3684  -45.0897  -58.5921 H         1 UNK         0.0559 
     88 H88        28.3349  -45.5525  -59.2739 H         1 UNK         0.0848 
     89 H89        27.4799  -44.0275  -59.4670 H         1 UNK         0.0848 
     90 H90        27.0284  -45.4108  -60.4468 H         1 UNK         0.0848 
     91 H91        26.9470  -47.4960  -57.8861 H         1 UNK         0.3144 
     92 H92        24.3940  -49.6015  -59.2892 H         1 UNK         0.0727 
     93 H93        26.3182  -50.7611  -60.3475 H         1 UNK         0.0790 
     94 H94        27.3238  -49.3269  -60.1436 H         1 UNK         0.0790 
     95 H95        25.9305  -49.2852  -61.2168 H         1 UNK         0.0790 
     96 H96        26.8779  -49.5054  -57.6073 H         1 UNK         0.3215 
     97 H97        25.3590  -51.2566  -55.0120 H         1 UNK         0.0863 
     98 H98        26.9036  -53.1803  -55.3279 H         1 UNK         0.0808 
     99 H99        27.1217  -52.7580  -57.0266 H         1 UNK         0.0808 
    100 H100       25.5527  -53.2963  -56.4425 H         1 UNK         0.0808 
    101 H101       28.1262  -50.8662  -55.8390 H         1 UNK         0.3118 
    102 H102       28.4477  -47.5874  -54.7006 H         1 UNK         0.0546 
    103 H103       28.4689  -48.6847  -52.4620 H         1 UNK         0.0828 
    104 H104       30.0954  -48.4105  -53.0592 H         1 UNK         0.0828 
    105 H105       29.3993  -50.0273  -53.1180 H         1 UNK         0.0828 
    106 H106       30.5129  -49.3466  -55.2934 H         1 UNK         0.3005 
    107 H107       30.2696  -49.7398  -58.7301 H         1 UNK         0.1257 
    108 H108       30.6461  -47.3449  -59.0285 H         1 UNK         0.0775 
    109 H109       32.1317  -48.2209  -59.1743 H         1 UNK         0.0775 
    110 H110       30.5534  -45.2617  -58.0054 H         1 UNK         0.0840 
    111 H111       30.0732  -45.9365  -56.4651 H         1 UNK         0.0840 
    112 H112       32.5508  -49.7101  -57.0054 H         1 UNK         0.2987 
    113 H113       32.0032  -52.7826  -55.4414 H         1 UNK         0.0785 
    114 H114       32.5367  -53.7468  -57.6904 H         1 UNK         0.0798 
    115 H115       33.9472  -53.7394  -56.6474 H         1 UNK         0.0798 
    116 H116       33.7863  -52.5328  -57.9253 H         1 UNK         0.0798 
    117 H117       34.4542  -51.4700  -55.7432 H         1 UNK         0.3079 
    118 H118       35.1970  -50.4964  -53.6924 H         1 UNK         0.0794 
    119 H119       34.1519  -47.8808  -54.9510 H         1 UNK         0.0786 
    120 H120       35.2473  -49.0136  -55.7341 H         1 UNK         0.0786 
    121 H121       35.7772  -48.1233  -54.3174 H         1 UNK         0.0786 
    122 H122       33.0324  -48.8384  -52.5707 H         1 UNK         0.3032 
    123 H123       33.0471  -48.8823  -50.1381 H         1 UNK         0.1094 
    124 H124       35.7914  -48.1010  -49.0110 H         1 UNK         0.0794 
    125 H125       34.2715  -48.1343  -48.1170 H         1 UNK         0.0794 
    126 H126       34.9653  -49.6267  -48.7270 H         1 UNK         0.0794 
    127 H127       34.5004  -46.3534  -50.1137 H         1 UNK         0.3016 
@<TRIPOS>BOND
     1    1    2 1    
     2    1   67 1    
     3    1   68 1    
     4    1   69 1    
     5    2    3 2    
     6    2    4 am   BACKBONE|DICT|INTERRES
     7    4    5 1    
     8    4   70 1    
     9    5    6 1    
    10    5   65 1    
    11    5   71 1    
    12    6    7 1    
    13    6   72 1    
    14    6   73 1    
    15    7    8 1    
    16    8    9 1    
    17    8   74 1    
    18    8   75 1    
    19    9   10 ar   
    20    9   14 ar   
    21   10   11 ar   
    22   10   76 1    
    23   11   12 ar   
    24   11   48 1    
    25   12   13 ar   
    26   12   77 1    
    27   13   14 ar   
    28   13   15 1    
    29   14   78 1    
    30   15   16 1    
    31   15   79 1    
    32   15   80 1    
    33   16   17 1    
    34   17   18 1    
    35   17   81 1    
    36   17   82 1    
    37   18   19 1    
    38   18   22 1    
    39   18   83 1    
    40   19   20 am   BACKBONE|DICT|INTERRES
    41   19   21 2    
    42   20   84 1    
    43   20   85 1    
    44   22   23 am   BACKBONE|DICT|INTERRES
    45   22   86 1    
    46   23   24 2    
    47   23   25 1    
    48   25   26 1    
    49   25   27 1    
    50   25   87 1    
    51   26   88 1    
    52   26   89 1    
    53   26   90 1    
    54   27   28 am   BACKBONE|DICT|INTERRES
    55   27   91 1    
    56   28   29 2    
    57   28   30 1    
    58   30   31 1    
    59   30   32 1    
    60   30   92 1    
    61   31   93 1    
    62   31   94 1    
    63   31   95 1    
    64   32   33 am   BACKBONE|DICT|INTERRES
    65   32   96 1    
    66   33   34 2    
    67   33   35 1    
    68   35   36 1    
    69   35   37 1    
    70   35   97 1    
    71   36   98 1    
    72   36   99 1    
    73   36  100 1    
    74   37   38 am   BACKBONE|DICT|INTERRES
    75   37  101 1    
    76   38   39 2    
    77   38   40 1    
    78   40   41 1    
    79   40   42 1    
    80   40  102 1    
    81   41  103 1    
    82   41  104 1    
    83   41  105 1    
    84   42   43 am   BACKBONE|DICT|INTERRES
    85   42  106 1    
    86   43   44 2    
    87   43   45 1    
    88   45   46 1    
    89   45   49 1    
    90   45  107 1    
    91   46   47 1    
    92   46  108 1    
    93   46  109 1    
    94   47   48 1    
    95   48  110 1    
    96   48  111 1    
    97   49   50 am   BACKBONE|DICT|INTERRES
    98   49  112 1    
    99   50   51 2    
   100   50   52 1    
   101   52   53 1    
   102   52   54 1    
   103   52  113 1    
   104   53  114 1    
   105   53  115 1    
   106   53  116 1    
   107   54   55 am   BACKBONE|DICT|INTERRES
   108   54  117 1    
   109   55   56 2    
   110   55   57 1    
   111   57   58 1    
   112   57   59 1    
   113   57  118 1    
   114   58  119 1    
   115   58  120 1    
   116   58  121 1    
   117   59   60 am   BACKBONE|DICT|INTERRES
   118   59  122 1    
   119   60   61 2    
   120   60   62 1    
   121   62   63 1    
   122   62   64 1    
   123   62  123 1    
   124   63  124 1    
   125   63  125 1    
   126   63  126 1    
   127   64   65 am   BACKBONE|DICT|INTERRES
   128   64  127 1    
   129   65   66 2    
@<TRIPOS>SUBSTRUCTURE
     1 UNK         1 GROUP             0       ****    0 ROOT    
