@<TRIPOS>MOLECULE
3R134
127   129    1
SMALL
USER_CHARGES


@<TRIPOS>ATOM
      1 CA         38.0454  -45.1054  -54.6772 C.3       0 UNK        -0.1968 
      2 C          37.0974  -46.2875  -54.8140 C.2       0 UNK         0.4852 
      3 O          37.5126  -47.3579  -55.2632 O.2       0 UNK        -0.5359 
      4 N          35.8278  -46.1080  -54.4263 N.am      1 UNK        -0.4300 
      5 CA         34.7774  -47.1303  -54.4744 C.3       1 UNK         0.0863 
      6 C6         33.3588  -46.5098  -54.5691 C.3       11 UNK        -0.0953 
      7 S7         33.1267  -45.6148  -56.1406 S.3       11 UNK        -0.2369 
      8 C8         33.1437  -43.8784  -55.5993 C.3       11 UNK         0.0226 
      9 C9         31.7598  -43.4069  -55.1798 C.ar      11 UNK        -0.0699 
     10 C10        31.3978  -43.3632  -53.8304 C.ar      11 UNK        -0.0804 
     11 C11        30.1317  -42.9049  -53.4541 C.ar      11 UNK        -0.0871 
     12 C12        29.2315  -42.4823  -54.4357 C.ar      11 UNK        -0.1008 
     13 C13        29.5742  -42.5304  -55.7923 C.ar      11 UNK        -0.0735 
     14 C14        30.8451  -42.9899  -56.1514 C.ar      11 UNK        -0.0945 
     15 C15        28.6175  -42.0685  -56.8916 C.3       11 UNK         0.0169 
     16 S16        26.8476  -42.2351  -56.4757 S.3       11 UNK        -0.2669 
     17 C17        26.0704  -41.9698  -58.1070 C.3       11 UNK        -0.0850 
     18 CA         24.8510  -42.8992  -58.3407 C.3       10 UNK         0.0855 
     19 C          24.2367  -42.6401  -59.7439 C.2       10 UNK         0.5543 
     20 N          23.2164  -41.7975  -59.8290 N.am      10 UNK        -0.7343 
     21 O          24.7095  -43.1540  -60.7556 O.2       10 UNK        -0.5027 
     22 N          25.1998  -44.3076  -58.1036 N.am      10 UNK        -0.4495 
     23 C          24.3589  -45.3479  -58.1307 C.2       10 UNK         0.4903 
     24 O          23.1536  -45.2452  -58.3643 O.2       10 UNK        -0.4860 
     25 CA         24.9403  -46.7331  -57.7805 C.3       9 UNK         0.0227 
     26 CB         24.3431  -47.8545  -58.6571 C.3       9 UNK        -0.1964 
     27 N          26.4087  -46.8030  -57.7594 N.am      9 UNK        -0.4231 
     28 C          27.2565  -46.6978  -58.7958 C.2       9 UNK         0.5014 
     29 O          26.9163  -46.4411  -59.9504 O.2       9 UNK        -0.5270 
     30 CA         28.7421  -46.9452  -58.4873 C.3       8 UNK         0.0284 
     31 CB         29.4038  -45.6861  -57.9053 C.3       8 UNK        -0.1977 
     32 N          28.9079  -48.0695  -57.5640 N.am      8 UNK        -0.4342 
     33 C          28.8326  -49.3584  -57.9274 C.2       8 UNK         0.5039 
     34 O          28.7485  -49.7379  -59.0962 O.2       8 UNK        -0.5547 
     35 CA         28.8305  -50.4042  -56.7997 C.3       7 UNK         0.0281 
     36 CB         30.2617  -50.8576  -56.4769 C.3       7 UNK        -0.1963 
     37 N          28.1776  -49.9076  -55.5849 N.am      7 UNK        -0.4444 
     38 C          26.8471  -49.7738  -55.4603 C.2       7 UNK         0.5104 
     39 O          26.0458  -50.1439  -56.3180 O.2       7 UNK        -0.5100 
     40 CA         26.2994  -49.1048  -54.1840 C.3       6 UNK         0.0396 
     41 CB         25.7922  -50.1703  -53.1995 C.3       6 UNK        -0.1801 
     42 N          27.2579  -48.2382  -53.4953 N.am      6 UNK        -0.4747 
     43 C          27.8202  -47.1305  -54.0013 C.2       6 UNK         0.5012 
     44 O          27.5509  -46.6821  -55.1164 O.2       6 UNK        -0.5003 
     45 CA         28.9139  -46.4583  -53.1426 C.3       5 UNK         0.0782 
     46 C46        28.3142  -45.3060  -52.2973 C.3       11 UNK        -0.0868 
     47 S47        29.5707  -44.4989  -51.2404 S.3       11 UNK        -0.2515 
     48 C48        29.7335  -42.8462  -51.9863 C.3       11 UNK         0.0199 
     49 N          29.6478  -47.4143  -52.2985 N.am      5 UNK        -0.4607 
     50 C          30.3331  -48.4839  -52.7191 C.2       4 UNK         0.5031 
     51 O          30.3812  -48.8409  -53.8972 O.2       4 UNK        -0.5119 
     52 CA         31.0633  -49.2691  -51.6193 C.3       4 UNK         0.0263 
     53 CB         30.0782  -49.9666  -50.6564 C.3       4 UNK        -0.1967 
     54 N          32.0694  -50.1914  -52.1573 N.am      4 UNK        -0.4237 
     55 C          31.9075  -51.3928  -52.7360 C.2       3 UNK         0.4908 
     56 O          30.8223  -51.9649  -52.8462 O.2       3 UNK        -0.5102 
     57 CA         33.1715  -52.0931  -53.2873 C.3       3 UNK         0.0241 
     58 CB         32.9644  -52.5762  -54.7338 C.3       3 UNK        -0.1971 
     59 N          34.3714  -51.2524  -53.2489 N.am      3 UNK        -0.4139 
     60 C          35.1583  -51.0553  -52.1825 C.2       2 UNK         0.5016 
     61 O          35.0217  -51.6443  -51.1103 O.2       2 UNK        -0.5319 
     62 CA         36.2551  -49.9819  -52.3252 C.3       2 UNK         0.0286 
     63 CB         37.6059  -50.6327  -52.6627 C.3       2 UNK        -0.1963 
     64 N          35.9521  -48.9521  -53.3296 N.am      2 UNK        -0.4790 
     65 C          34.9225  -48.0944  -53.2800 C.2       1 UNK         0.5024 
     66 O          34.1187  -48.0576  -52.3475 O.2       1 UNK        -0.4888 
     67 H67        38.8684  -45.3602  -54.0101 H         1 UNK         0.0892 
     68 H68        37.5443  -44.2241  -54.2771 H         1 UNK         0.0892 
     69 H69        38.4624  -44.8456  -55.6497 H         1 UNK         0.0892 
     70 H70        35.5524  -45.2193  -54.0354 H         1 UNK         0.3107 
     71 H71        34.9216  -47.7310  -55.3756 H         1 UNK         0.0773 
     72 H72        33.1550  -45.8533  -53.7218 H         1 UNK         0.0680 
     73 H73        32.5990  -47.2926  -54.5358 H         1 UNK         0.0680 
     74 H74        33.8637  -43.7419  -54.7915 H         1 UNK         0.0650 
     75 H75        33.4994  -43.2619  -56.4262 H         1 UNK         0.0650 
     76 H76        32.0981  -43.6830  -53.0711 H         1 UNK         0.1397 
     77 H77        28.2607  -42.1139  -54.1356 H         1 UNK         0.1363 
     78 H78        31.1287  -43.0231  -57.1947 H         1 UNK         0.1355 
     79 H79        28.8152  -42.6374  -57.8006 H         1 UNK         0.0707 
     80 H80        28.8281  -41.0240  -57.1247 H         1 UNK         0.0707 
     81 H81        26.8108  -42.1187  -58.8955 H         1 UNK         0.1034 
     82 H82        25.7682  -40.9227  -58.1709 H         1 UNK         0.1034 
     83 H83        24.0951  -42.6462  -57.5943 H         1 UNK         0.0482 
     84 H84        22.8157  -41.6024  -60.7333 H         1 UNK         0.3460 
     85 H85        22.8289  -41.3624  -59.0059 H         1 UNK         0.3460 
     86 H86        26.1687  -44.4877  -57.8907 H         1 UNK         0.2989 
     87 H87        24.6313  -46.9289  -56.7528 H         1 UNK         0.0559 
     88 H88        24.5411  -47.6897  -59.7165 H         1 UNK         0.0848 
     89 H89        23.2609  -47.9136  -58.5360 H         1 UNK         0.0848 
     90 H90        24.7501  -48.8289  -58.3872 H         1 UNK         0.0848 
     91 H91        26.8176  -46.9209  -56.8345 H         1 UNK         0.3144 
     92 H92        29.2468  -47.1850  -59.4258 H         1 UNK         0.0727 
     93 H93        30.4601  -45.8545  -57.6966 H         1 UNK         0.0790 
     94 H94        28.9295  -45.3590  -56.9794 H         1 UNK         0.0790 
     95 H95        29.3439  -44.8592  -58.6133 H         1 UNK         0.0790 
     96 H96        28.9526  -47.8488  -56.5785 H         1 UNK         0.3215 
     97 H97        28.2758  -51.2756  -57.1550 H         1 UNK         0.0863 
     98 H98        30.7259  -51.3269  -57.3451 H         1 UNK         0.0808 
     99 H99        30.2687  -51.5882  -55.6682 H         1 UNK         0.0808 
    100 H100       30.8971  -50.0221  -56.1815 H         1 UNK         0.0808 
    101 H101       28.7890  -49.5827  -54.8406 H         1 UNK         0.3118 
    102 H102       25.4522  -48.4840  -54.4830 H         1 UNK         0.0546 
    103 H103       25.0505  -50.8165  -53.6715 H         1 UNK         0.0828 
    104 H104       25.3153  -49.7157  -52.3311 H         1 UNK         0.0828 
    105 H105       26.6016  -50.8096  -52.8445 H         1 UNK         0.0828 
    106 H106       27.5573  -48.5367  -52.5783 H         1 UNK         0.3005 
    107 H107       29.6362  -46.0278  -53.8407 H         1 UNK         0.1257 
    108 H108       27.5248  -45.6822  -51.6436 H         1 UNK         0.0775 
    109 H109       27.8411  -44.5621  -52.9410 H         1 UNK         0.0775 
    110 H110       28.7940  -42.3063  -51.8568 H         1 UNK         0.0840 
    111 H111       30.4860  -42.2821  -51.4336 H         1 UNK         0.0840 
    112 H112       29.6771  -47.1773  -51.3171 H         1 UNK         0.2987 
    113 H113       31.6319  -48.5396  -51.0400 H         1 UNK         0.0785 
    114 H114       29.3737  -50.6091  -51.1855 H         1 UNK         0.0798 
    115 H115       29.4888  -49.2373  -50.1000 H         1 UNK         0.0798 
    116 H116       30.6051  -50.5780  -49.9238 H         1 UNK         0.0798 
    117 H117       33.0021  -49.7960  -52.1717 H         1 UNK         0.3079 
    118 H118       33.3397  -52.9718  -52.6611 H         1 UNK         0.0794 
    119 H119       32.8132  -51.7414  -55.4184 H         1 UNK         0.0786 
    120 H120       32.0947  -53.2297  -54.8138 H         1 UNK         0.0786 
    121 H121       33.8244  -53.1458  -55.0867 H         1 UNK         0.0786 
    122 H122       34.5766  -50.7234  -54.0841 H         1 UNK         0.3032 
    123 H123       36.3446  -49.4845  -51.3567 H         1 UNK         0.1094 
    124 H124       38.4086  -49.8951  -52.6796 H         1 UNK         0.0794 
    125 H125       37.8745  -51.3842  -51.9186 H         1 UNK         0.0794 
    126 H126       37.5843  -51.1283  -53.6341 H         1 UNK         0.0794 
    127 H127       36.6057  -48.8493  -54.1000 H         1 UNK         0.3016 
@<TRIPOS>BOND
     1    1    2 1    
     2    1   67 1    
     3    1   68 1    
     4    1   69 1    
     5    2    3 2    
     6    2    4 am   BACKBONE|DICT|INTERRES
     7    4    5 1    
     8    4   70 1    
     9    5    6 1    
    10    5   65 1    
    11    5   71 1    
    12    6    7 1    
    13    6   72 1    
    14    6   73 1    
    15    7    8 1    
    16    8    9 1    
    17    8   74 1    
    18    8   75 1    
    19    9   10 ar   
    20    9   14 ar   
    21   10   11 ar   
    22   10   76 1    
    23   11   12 ar   
    24   11   48 1    
    25   12   13 ar   
    26   12   77 1    
    27   13   14 ar   
    28   13   15 1    
    29   14   78 1    
    30   15   16 1    
    31   15   79 1    
    32   15   80 1    
    33   16   17 1    
    34   17   18 1    
    35   17   81 1    
    36   17   82 1    
    37   18   19 1    
    38   18   22 1    
    39   18   83 1    
    40   19   20 am   BACKBONE|DICT|INTERRES
    41   19   21 2    
    42   20   84 1    
    43   20   85 1    
    44   22   23 am   BACKBONE|DICT|INTERRES
    45   22   86 1    
    46   23   24 2    
    47   23   25 1    
    48   25   26 1    
    49   25   27 1    
    50   25   87 1    
    51   26   88 1    
    52   26   89 1    
    53   26   90 1    
    54   27   28 am   BACKBONE|DICT|INTERRES
    55   27   91 1    
    56   28   29 2    
    57   28   30 1    
    58   30   31 1    
    59   30   32 1    
    60   30   92 1    
    61   31   93 1    
    62   31   94 1    
    63   31   95 1    
    64   32   33 am   BACKBONE|DICT|INTERRES
    65   32   96 1    
    66   33   34 2    
    67   33   35 1    
    68   35   36 1    
    69   35   37 1    
    70   35   97 1    
    71   36   98 1    
    72   36   99 1    
    73   36  100 1    
    74   37   38 am   BACKBONE|DICT|INTERRES
    75   37  101 1    
    76   38   39 2    
    77   38   40 1    
    78   40   41 1    
    79   40   42 1    
    80   40  102 1    
    81   41  103 1    
    82   41  104 1    
    83   41  105 1    
    84   42   43 am   BACKBONE|DICT|INTERRES
    85   42  106 1    
    86   43   44 2    
    87   43   45 1    
    88   45   46 1    
    89   45   49 1    
    90   45  107 1    
    91   46   47 1    
    92   46  108 1    
    93   46  109 1    
    94   47   48 1    
    95   48  110 1    
    96   48  111 1    
    97   49   50 am   BACKBONE|DICT|INTERRES
    98   49  112 1    
    99   50   51 2    
   100   50   52 1    
   101   52   53 1    
   102   52   54 1    
   103   52  113 1    
   104   53  114 1    
   105   53  115 1    
   106   53  116 1    
   107   54   55 am   BACKBONE|DICT|INTERRES
   108   54  117 1    
   109   55   56 2    
   110   55   57 1    
   111   57   58 1    
   112   57   59 1    
   113   57  118 1    
   114   58  119 1    
   115   58  120 1    
   116   58  121 1    
   117   59   60 am   BACKBONE|DICT|INTERRES
   118   59  122 1    
   119   60   61 2    
   120   60   62 1    
   121   62   63 1    
   122   62   64 1    
   123   62  123 1    
   124   63  124 1    
   125   63  125 1    
   126   63  126 1    
   127   64   65 am   BACKBONE|DICT|INTERRES
   128   64  127 1    
   129   65   66 2    
@<TRIPOS>SUBSTRUCTURE
     1 UNK         1 GROUP             0       ****    0 ROOT    
