@<TRIPOS>MOLECULE
3R134
127   129    1
SMALL
USER_CHARGES


@<TRIPOS>ATOM
      1 CA         33.4271  -46.4608  -51.5836 C.3       0 UNK        -0.1968 
      2 C          33.4446  -46.3626  -53.1011 C.2       0 UNK         0.4852 
      3 O          32.4476  -46.6989  -53.7391 O.2       0 UNK        -0.5359 
      4 N          34.5742  -45.9224  -53.6783 N.am      1 UNK        -0.4300 
      5 CA         34.8538  -45.7344  -55.1135 C.3       1 UNK         0.0863 
      6 C6         33.9125  -44.7122  -55.8097 C.3       11 UNK        -0.0953 
      7 S7         34.4351  -42.9879  -55.5216 S.3       11 UNK        -0.2369 
      8 C8         33.7061  -42.5901  -53.8943 C.3       11 UNK         0.0226 
      9 C9         32.1816  -42.6495  -53.8317 C.ar      11 UNK        -0.0699 
     10 C10        31.5630  -43.0458  -52.6420 C.ar      11 UNK        -0.0804 
     11 C11        30.1695  -43.0818  -52.5359 C.ar      11 UNK        -0.0871 
     12 C12        29.3865  -42.7335  -53.6412 C.ar      11 UNK        -0.1008 
     13 C13        29.9909  -42.3202  -54.8331 C.ar      11 UNK        -0.0735 
     14 C14        31.3850  -42.2703  -54.9176 C.ar      11 UNK        -0.0945 
     15 C15        29.1471  -41.9003  -56.0264 C.3       11 UNK         0.0169 
     16 S16        29.2823  -43.1057  -57.3788 S.3       11 UNK        -0.2669 
     17 C17        28.1185  -42.4000  -58.5956 C.3       11 UNK        -0.0850 
     18 CA         26.6717  -42.9264  -58.4143 C.3       10 UNK         0.0855 
     19 C          25.7232  -42.3123  -59.4789 C.2       10 UNK         0.5543 
     20 N          25.1260  -41.1650  -59.1875 N.am      10 UNK        -0.7343 
     21 O          25.5607  -42.8396  -60.5780 O.2       10 UNK        -0.5027 
     22 N          26.6392  -44.3930  -58.3976 N.am      10 UNK        -0.4495 
     23 C          25.6064  -45.1524  -58.0257 C.2       10 UNK         0.4903 
     24 O          24.5191  -44.7006  -57.6647 O.2       10 UNK        -0.4860 
     25 CA         25.8221  -46.6758  -58.0092 C.3       9 UNK         0.0227 
     26 CB         25.3840  -47.3186  -59.3391 C.3       9 UNK        -0.1964 
     27 N          27.1734  -47.1042  -57.6175 N.am      9 UNK        -0.4231 
     28 C          28.3351  -47.0067  -58.2827 C.2       9 UNK         0.5014 
     29 O          28.4629  -46.4359  -59.3664 O.2       9 UNK        -0.5270 
     30 CA         29.5656  -47.6634  -57.6272 C.3       8 UNK         0.0284 
     31 CB         30.3133  -46.6582  -56.7352 C.3       8 UNK        -0.1977 
     32 N          29.2201  -48.8545  -56.8446 N.am      8 UNK        -0.4342 
     33 C          28.7570  -50.0017  -57.3656 C.2       8 UNK         0.5039 
     34 O          28.6635  -50.2200  -58.5739 O.2       8 UNK        -0.5547 
     35 CA         28.2897  -51.0768  -56.3716 C.3       7 UNK         0.0281 
     36 CB         29.4596  -51.9735  -55.9311 C.3       7 UNK        -0.1963 
     37 N          27.6448  -50.4770  -55.2007 N.am      7 UNK        -0.4444 
     38 C          26.3795  -50.0315  -55.1846 C.2       7 UNK         0.5104 
     39 O          25.5974  -50.1575  -56.1265 O.2       7 UNK        -0.5100 
     40 CA         25.9029  -49.3086  -53.9108 C.3       6 UNK         0.0396 
     41 CB         25.2474  -50.3062  -52.9430 C.3       6 UNK        -0.1801 
     42 N          26.9721  -48.5895  -53.2133 N.am      6 UNK        -0.4747 
     43 C          27.6039  -47.5040  -53.6868 C.2       6 UNK         0.5012 
     44 O          27.3159  -46.9633  -54.7530 O.2       6 UNK        -0.5003 
     45 CA         28.7897  -46.9718  -52.8523 C.3       5 UNK         0.0782 
     46 C46        28.2901  -45.9111  -51.8429 C.3       11 UNK        -0.0868 
     47 S47        29.6351  -45.2142  -50.8268 S.3       11 UNK        -0.2515 
     48 C48        29.5212  -43.4380  -51.2053 C.3       11 UNK         0.0199 
     49 N          29.5411  -48.0547  -52.1991 N.am      5 UNK        -0.4607 
     50 C          30.1471  -49.0562  -52.8466 C.2       4 UNK         0.5031 
     51 O          30.1130  -49.1987  -54.0736 O.2       4 UNK        -0.5119 
     52 CA         30.8384  -50.1166  -51.9842 C.3       4 UNK         0.0263 
     53 CB         29.7987  -51.0605  -51.3485 C.3       4 UNK        -0.1967 
     54 N          31.7307  -50.8608  -52.8614 N.am      4 UNK        -0.4237 
     55 C          32.7110  -51.7005  -52.5132 C.2       3 UNK         0.4908 
     56 O          32.9731  -52.0121  -51.3510 O.2       3 UNK        -0.5102 
     57 CA         33.5518  -52.2869  -53.6656 C.3       3 UNK         0.0241 
     58 CB         33.0063  -53.6639  -54.0786 C.3       3 UNK        -0.1971 
     59 N          33.6017  -51.4133  -54.8454 N.am      3 UNK        -0.4139 
     60 C          34.1979  -50.2126  -54.8719 C.2       2 UNK         0.5016 
     61 O          34.8687  -49.7742  -53.9335 O.2       2 UNK        -0.5319 
     62 CA         33.9960  -49.3504  -56.1332 C.3       2 UNK         0.0286 
     63 CB         32.6929  -49.6702  -56.8919 C.3       2 UNK        -0.1963 
     64 N          33.9664  -47.9474  -55.7256 N.am      2 UNK        -0.4790 
     65 C          34.9551  -47.0653  -55.8922 C.2       1 UNK         0.5024 
     66 O          35.9433  -47.2755  -56.5978 O.2       1 UNK        -0.4888 
     67 H67        32.6096  -45.8640  -51.1810 H         1 UNK         0.0892 
     68 H68        33.2748  -47.4961  -51.2798 H         1 UNK         0.0892 
     69 H69        34.3570  -46.1075  -51.1389 H         1 UNK         0.0892 
     70 H70        35.3600  -45.7113  -53.0792 H         1 UNK         0.3107 
     71 H71        35.8642  -45.3228  -55.1466 H         1 UNK         0.0773 
     72 H72        33.9263  -44.8499  -56.8926 H         1 UNK         0.0680 
     73 H73        32.8708  -44.8447  -55.5155 H         1 UNK         0.0680 
     74 H74        34.0161  -41.5806  -53.6222 H         1 UNK         0.0650 
     75 H75        34.1436  -43.2522  -53.1471 H         1 UNK         0.0650 
     76 H76        32.1668  -43.3134  -51.7856 H         1 UNK         0.1397 
     77 H77        28.3080  -42.7588  -53.5663 H         1 UNK         0.1363 
     78 H78        31.8451  -41.9400  -55.8384 H         1 UNK         0.1355 
     79 H79        29.4750  -40.9205  -56.3769 H         1 UNK         0.0707 
     80 H80        28.0995  -41.7964  -55.7398 H         1 UNK         0.0707 
     81 H81        28.1453  -41.3106  -58.5289 H         1 UNK         0.1034 
     82 H82        28.4882  -42.6485  -59.5924 H         1 UNK         0.1034 
     83 H83        26.3209  -42.5988  -57.4335 H         1 UNK         0.0482 
     84 H84        25.2585  -40.7189  -58.2931 H         1 UNK         0.3460 
     85 H85        24.5191  -40.7412  -59.8720 H         1 UNK         0.3460 
     86 H86        27.4753  -44.8661  -58.7238 H         1 UNK         0.2989 
     87 H87        25.1681  -47.0695  -57.2294 H         1 UNK         0.0559 
     88 H88        24.3395  -47.0901  -59.5545 H         1 UNK         0.0848 
     89 H89        25.4788  -48.4041  -59.3035 H         1 UNK         0.0848 
     90 H90        25.9733  -46.9564  -60.1819 H         1 UNK         0.0848 
     91 H91        27.2347  -47.4508  -56.6647 H         1 UNK         0.3144 
     92 H92        30.2404  -47.9767  -58.4264 H         1 UNK         0.0727 
     93 H93        29.6623  -46.2233  -55.9768 H         1 UNK         0.0790 
     94 H94        30.7091  -45.8342  -57.3297 H         1 UNK         0.0790 
     95 H95        31.1572  -47.1204  -56.2240 H         1 UNK         0.0790 
     96 H96        29.3425  -48.7972  -55.8378 H         1 UNK         0.3215 
     97 H97        27.5615  -51.7088  -56.8853 H         1 UNK         0.0863 
     98 H98        29.1261  -52.7523  -55.2452 H         1 UNK         0.0808 
     99 H99        30.2483  -51.4086  -55.4378 H         1 UNK         0.0808 
    100 H100       29.9092  -52.4711  -56.7914 H         1 UNK         0.0808 
    101 H101       28.2399  -50.2770  -54.4082 H         1 UNK         0.3118 
    102 H102       25.1477  -48.5785  -54.2101 H         1 UNK         0.0546 
    103 H103       25.9577  -51.0543  -52.5888 H         1 UNK         0.0828 
    104 H104       24.4287  -50.8393  -53.4286 H         1 UNK         0.0828 
    105 H105       24.8293  -49.7998  -52.0729 H         1 UNK         0.0828 
    106 H106       27.2720  -48.9651  -52.3252 H         1 UNK         0.3005 
    107 H107       29.4782  -46.4822  -53.5460 H         1 UNK         0.1257 
    108 H108       27.5516  -46.3426  -51.1643 H         1 UNK         0.0775 
    109 H109       27.7797  -45.1028  -52.3701 H         1 UNK         0.0775 
    110 H110       28.4778  -43.1196  -51.1775 H         1 UNK         0.0840 
    111 H111       30.0215  -42.8834  -50.4100 H         1 UNK         0.0840 
    112 H112       29.6188  -47.9932  -51.1943 H         1 UNK         0.2987 
    113 H113       31.4274  -49.6198  -51.2108 H         1 UNK         0.0785 
    114 H114       29.1082  -50.5136  -50.7055 H         1 UNK         0.0798 
    115 H115       30.2752  -51.8200  -50.7287 H         1 UNK         0.0798 
    116 H116       29.2055  -51.5747  -52.1059 H         1 UNK         0.0798 
    117 H117       31.6048  -50.6231  -53.8371 H         1 UNK         0.3079 
    118 H118       34.5714  -52.4165  -53.2961 H         1 UNK         0.0794 
    119 H119       33.6319  -54.1268  -54.8420 H         1 UNK         0.0786 
    120 H120       31.9903  -53.5968  -54.4701 H         1 UNK         0.0786 
    121 H121       32.9820  -54.3446  -53.2263 H         1 UNK         0.0786 
    122 H122       33.0964  -51.7217  -55.6632 H         1 UNK         0.3032 
    123 H123       34.8423  -49.5415  -56.7967 H         1 UNK         0.1094 
    124 H124       31.8237  -49.6027  -56.2384 H         1 UNK         0.0794 
    125 H125       32.5392  -48.9730  -57.7157 H         1 UNK         0.0794 
    126 H126       32.7116  -50.6697  -57.3273 H         1 UNK         0.0794 
    127 H127       33.2353  -47.6803  -55.0669 H         1 UNK         0.3016 
@<TRIPOS>BOND
     1    1    2 1    
     2    1   67 1    
     3    1   68 1    
     4    1   69 1    
     5    2    3 2    
     6    2    4 am   BACKBONE|DICT|INTERRES
     7    4    5 1    
     8    4   70 1    
     9    5    6 1    
    10    5   65 1    
    11    5   71 1    
    12    6    7 1    
    13    6   72 1    
    14    6   73 1    
    15    7    8 1    
    16    8    9 1    
    17    8   74 1    
    18    8   75 1    
    19    9   10 ar   
    20    9   14 ar   
    21   10   11 ar   
    22   10   76 1    
    23   11   12 ar   
    24   11   48 1    
    25   12   13 ar   
    26   12   77 1    
    27   13   14 ar   
    28   13   15 1    
    29   14   78 1    
    30   15   16 1    
    31   15   79 1    
    32   15   80 1    
    33   16   17 1    
    34   17   18 1    
    35   17   81 1    
    36   17   82 1    
    37   18   19 1    
    38   18   22 1    
    39   18   83 1    
    40   19   20 am   BACKBONE|DICT|INTERRES
    41   19   21 2    
    42   20   84 1    
    43   20   85 1    
    44   22   23 am   BACKBONE|DICT|INTERRES
    45   22   86 1    
    46   23   24 2    
    47   23   25 1    
    48   25   26 1    
    49   25   27 1    
    50   25   87 1    
    51   26   88 1    
    52   26   89 1    
    53   26   90 1    
    54   27   28 am   BACKBONE|DICT|INTERRES
    55   27   91 1    
    56   28   29 2    
    57   28   30 1    
    58   30   31 1    
    59   30   32 1    
    60   30   92 1    
    61   31   93 1    
    62   31   94 1    
    63   31   95 1    
    64   32   33 am   BACKBONE|DICT|INTERRES
    65   32   96 1    
    66   33   34 2    
    67   33   35 1    
    68   35   36 1    
    69   35   37 1    
    70   35   97 1    
    71   36   98 1    
    72   36   99 1    
    73   36  100 1    
    74   37   38 am   BACKBONE|DICT|INTERRES
    75   37  101 1    
    76   38   39 2    
    77   38   40 1    
    78   40   41 1    
    79   40   42 1    
    80   40  102 1    
    81   41  103 1    
    82   41  104 1    
    83   41  105 1    
    84   42   43 am   BACKBONE|DICT|INTERRES
    85   42  106 1    
    86   43   44 2    
    87   43   45 1    
    88   45   46 1    
    89   45   49 1    
    90   45  107 1    
    91   46   47 1    
    92   46  108 1    
    93   46  109 1    
    94   47   48 1    
    95   48  110 1    
    96   48  111 1    
    97   49   50 am   BACKBONE|DICT|INTERRES
    98   49  112 1    
    99   50   51 2    
   100   50   52 1    
   101   52   53 1    
   102   52   54 1    
   103   52  113 1    
   104   53  114 1    
   105   53  115 1    
   106   53  116 1    
   107   54   55 am   BACKBONE|DICT|INTERRES
   108   54  117 1    
   109   55   56 2    
   110   55   57 1    
   111   57   58 1    
   112   57   59 1    
   113   57  118 1    
   114   58  119 1    
   115   58  120 1    
   116   58  121 1    
   117   59   60 am   BACKBONE|DICT|INTERRES
   118   59  122 1    
   119   60   61 2    
   120   60   62 1    
   121   62   63 1    
   122   62   64 1    
   123   62  123 1    
   124   63  124 1    
   125   63  125 1    
   126   63  126 1    
   127   64   65 am   BACKBONE|DICT|INTERRES
   128   64  127 1    
   129   65   66 2    
@<TRIPOS>SUBSTRUCTURE
     1 UNK         1 GROUP             0       ****    0 ROOT    
