@<TRIPOS>MOLECULE
3R134
127   129    1
SMALL
USER_CHARGES


@<TRIPOS>ATOM
      1 CA         31.1073  -46.7748  -57.9168 C.3       0 UNK        -0.1968 
      2 C          31.6216  -46.2680  -56.5767 C.2       0 UNK         0.4852 
      3 O          30.8205  -45.8855  -55.7277 O.2       0 UNK        -0.5359 
      4 N          32.9444  -46.2672  -56.3820 N.am      1 UNK        -0.4300 
      5 CA         33.6106  -45.8105  -55.1587 C.3       1 UNK         0.0863 
      6 C6         34.4721  -44.5391  -55.4025 C.3       11 UNK        -0.0953 
      7 S7         33.5511  -43.1489  -56.1534 S.3       11 UNK        -0.2369 
      8 C8         33.1419  -42.1094  -54.7148 C.3       11 UNK         0.0226 
      9 C9         32.0213  -42.7162  -53.8838 C.ar      11 UNK        -0.0699 
     10 C10        32.3196  -43.4817  -52.7554 C.ar      11 UNK        -0.0804 
     11 C11        31.2988  -44.0790  -52.0113 C.ar      11 UNK        -0.0871 
     12 C12        29.9651  -43.8840  -52.3864 C.ar      11 UNK        -0.1008 
     13 C13        29.6516  -43.0952  -53.4995 C.ar      11 UNK        -0.0735 
     14 C14        30.6854  -42.5138  -54.2425 C.ar      11 UNK        -0.0945 
     15 C15        28.1970  -42.8454  -53.8820 C.3       11 UNK         0.0169 
     16 S16        27.4526  -44.2443  -54.7814 S.3       11 UNK        -0.2669 
     17 C17        28.2910  -44.1419  -56.4002 C.3       11 UNK        -0.0850 
     18 CA         27.4295  -43.5043  -57.5188 C.3       10 UNK         0.0855 
     19 C          28.3077  -43.2686  -58.7829 C.2       10 UNK         0.5543 
     20 N          28.1665  -44.0496  -59.8472 N.am      10 UNK        -0.7343 
     21 O          29.1336  -42.3597  -58.7919 O.2       10 UNK        -0.5027 
     22 N          26.2100  -44.2939  -57.7414 N.am      10 UNK        -0.4495 
     23 C          25.1842  -44.0019  -58.5459 C.2       10 UNK         0.4903 
     24 O          25.0991  -42.9581  -59.1936 O.2       10 UNK        -0.4860 
     25 CA         24.0788  -45.0785  -58.6491 C.3       9 UNK         0.0227 
     26 CB         22.9692  -44.6908  -59.6448 C.3       9 UNK        -0.1964 
     27 N          24.5974  -46.4080  -59.0077 N.am      9 UNK        -0.4231 
     28 C          25.2991  -47.2138  -58.1999 C.2       9 UNK         0.5014 
     29 O          25.5936  -46.9168  -57.0369 O.2       9 UNK        -0.5270 
     30 CA         25.7904  -48.5459  -58.7869 C.3       8 UNK         0.0284 
     31 CB         26.8065  -48.3238  -59.9217 C.3       8 UNK        -0.1977 
     32 N          26.4416  -49.2652  -57.7013 N.am      8 UNK        -0.4342 
     33 C          26.3324  -50.5586  -57.3892 C.2       8 UNK         0.5039 
     34 O          25.7724  -51.3955  -58.0982 O.2       8 UNK        -0.5547 
     35 CA         26.9429  -50.9818  -56.0382 C.3       7 UNK         0.0281 
     36 CB         28.2771  -51.7149  -56.2546 C.3       7 UNK        -0.1963 
     37 N          27.1479  -49.8341  -55.1405 N.am      7 UNK        -0.4444 
     38 C          26.1634  -49.2438  -54.4417 C.2       7 UNK         0.5104 
     39 O          25.0152  -49.6891  -54.3993 O.2       7 UNK        -0.5100 
     40 CA         26.4791  -47.9210  -53.7070 C.3       6 UNK         0.0396 
     41 CB         25.7197  -47.7929  -52.3697 C.3       6 UNK        -0.1801 
     42 N          27.9078  -47.6379  -53.5289 N.am      6 UNK        -0.4747 
     43 C          28.7874  -48.3421  -52.8032 C.2       6 UNK         0.5012 
     44 O          28.5034  -49.3513  -52.1544 O.2       6 UNK        -0.5003 
     45 CA         30.2480  -47.8462  -52.8306 C.3       5 UNK         0.0782 
     46 C46        30.7007  -47.5286  -51.3838 C.3       11 UNK        -0.0868 
     47 S47        32.2458  -46.5728  -51.3008 S.3       11 UNK        -0.2515 
     48 C48        31.6581  -44.9244  -50.8008 C.3       11 UNK         0.0199 
     49 N          31.1322  -48.8119  -53.5090 N.am      5 UNK        -0.4607 
     50 C          30.9163  -49.3366  -54.7286 C.2       4 UNK         0.5031 
     51 O          29.9521  -49.0346  -55.4337 O.2       4 UNK        -0.5119 
     52 CA         31.9095  -50.3783  -55.2744 C.3       4 UNK         0.0263 
     53 CB         32.2372  -50.1274  -56.7582 C.3       4 UNK        -0.1967 
     54 N          33.1656  -50.4366  -54.5268 N.am      4 UNK        -0.4237 
     55 C          33.5073  -51.4141  -53.6759 C.2       3 UNK         0.4908 
     56 O          32.7552  -52.3339  -53.3545 O.2       3 UNK        -0.5102 
     57 CA         34.9343  -51.3854  -53.0951 C.3       3 UNK         0.0241 
     58 CB         35.8345  -52.3852  -53.8398 C.3       3 UNK        -0.1971 
     59 N          35.5546  -50.0597  -53.1415 N.am      3 UNK        -0.4139 
     60 C          35.1960  -49.0335  -52.3613 C.2       2 UNK         0.5016 
     61 O          34.3490  -49.1246  -51.4738 O.2       2 UNK        -0.5319 
     62 CA         35.8722  -47.6749  -52.6244 C.3       2 UNK         0.0286 
     63 CB         37.2579  -47.7854  -53.3017 C.3       2 UNK        -0.1963 
     64 N          34.9997  -46.7628  -53.3766 N.am      2 UNK        -0.4790 
     65 C          34.4690  -46.9594  -54.5933 C.2       1 UNK         0.5024 
     66 O          34.6483  -47.9843  -55.2588 O.2       1 UNK        -0.4888 
     67 H67        30.3903  -47.5806  -57.7610 H         1 UNK         0.0892 
     68 H68        30.6033  -45.9704  -58.4515 H         1 UNK         0.0892 
     69 H69        31.9115  -47.1525  -58.5467 H         1 UNK         0.0892 
     70 H70        33.5615  -46.6560  -57.0806 H         1 UNK         0.3107 
     71 H71        32.8651  -45.5870  -54.3946 H         1 UNK         0.0773 
     72 H72        35.3026  -44.7720  -56.0718 H         1 UNK         0.0680 
     73 H73        34.9275  -44.1931  -54.4732 H         1 UNK         0.0680 
     74 H74        32.8368  -41.1249  -55.0722 H         1 UNK         0.0650 
     75 H75        34.0344  -41.9479  -54.1081 H         1 UNK         0.0650 
     76 H76        33.3505  -43.6321  -52.4665 H         1 UNK         0.1397 
     77 H77        29.1696  -44.3389  -51.8121 H         1 UNK         0.1363 
     78 H78        30.4534  -41.9086  -55.1081 H         1 UNK         0.1355 
     79 H79        28.1059  -41.9406  -54.4853 H         1 UNK         0.0707 
     80 H80        27.6144  -42.6644  -52.9775 H         1 UNK         0.0707 
     81 H81        29.2366  -43.6126  -56.2835 H         1 UNK         0.1034 
     82 H82        28.5612  -45.1583  -56.6900 H         1 UNK         0.1034 
     83 H83        27.1101  -42.5175  -57.1796 H         1 UNK         0.0482 
     84 H84        28.7367  -43.8825  -60.6606 H         1 UNK         0.3460 
     85 H85        27.4787  -44.7840  -59.8528 H         1 UNK         0.3460 
     86 H86        26.1635  -45.1838  -57.2512 H         1 UNK         0.2989 
     87 H87        23.6199  -45.1506  -57.6609 H         1 UNK         0.0559 
     88 H88        23.3534  -44.5931  -60.6607 H         1 UNK         0.0848 
     89 H89        22.1686  -45.4304  -59.6574 H         1 UNK         0.0848 
     90 H90        22.5172  -43.7356  -59.3741 H         1 UNK         0.0848 
     91 H91        24.4231  -46.7129  -59.9549 H         1 UNK         0.3144 
     92 H92        24.9277  -49.1068  -59.1523 H         1 UNK         0.0727 
     93 H93        27.1987  -49.2727  -60.2882 H         1 UNK         0.0790 
     94 H94        27.6539  -47.7197  -59.5930 H         1 UNK         0.0790 
     95 H95        26.3499  -47.8167  -60.7720 H         1 UNK         0.0790 
     96 H96        26.8339  -48.6506  -56.9989 H         1 UNK         0.3215 
     97 H97        26.2475  -51.6777  -55.5635 H         1 UNK         0.0863 
     98 H98        28.7349  -51.9987  -55.3068 H         1 UNK         0.0808 
     99 H99        28.9906  -51.1014  -56.8055 H         1 UNK         0.0808 
    100 H100       28.1272  -52.6295  -56.8296 H         1 UNK         0.0808 
    101 H101       28.0793  -49.4233  -55.1299 H         1 UNK         0.3118 
    102 H102       26.1088  -47.1306  -54.3607 H         1 UNK         0.0546 
    103 H103       24.6414  -47.8365  -52.5263 H         1 UNK         0.0828 
    104 H104       25.9343  -46.8425  -51.8813 H         1 UNK         0.0828 
    105 H105       25.9777  -48.5941  -51.6771 H         1 UNK         0.0828 
    106 H106       28.2528  -46.8467  -54.0587 H         1 UNK         0.3005 
    107 H107       30.2842  -46.9191  -53.4067 H         1 UNK         0.1257 
    108 H108       30.8451  -48.4525  -50.8205 H         1 UNK         0.0775 
    109 H109       29.9262  -46.9766  -50.8480 H         1 UNK         0.0775 
    110 H110       30.8177  -45.0043  -50.1100 H         1 UNK         0.0840 
    111 H111       32.4533  -44.4288  -50.2422 H         1 UNK         0.0840 
    112 H112       31.9409  -49.1151  -52.9857 H         1 UNK         0.2987 
    113 H113       31.3959  -51.3400  -55.2153 H         1 UNK         0.0785 
    114 H114       31.3347  -50.1104  -57.3704 H         1 UNK         0.0798 
    115 H115       32.8779  -50.9136  -57.1577 H         1 UNK         0.0798 
    116 H116       32.7496  -49.1768  -56.9020 H         1 UNK         0.0798 
    117 H117       33.8332  -49.6955  -54.7219 H         1 UNK         0.3079 
    118 H118       34.8684  -51.6972  -52.0501 H         1 UNK         0.0794 
    119 H119       35.4183  -53.3929  -53.7964 H         1 UNK         0.0786 
    120 H120       36.8297  -52.4293  -53.3970 H         1 UNK         0.0786 
    121 H121       35.9449  -52.1236  -54.8933 H         1 UNK         0.0786 
    122 H122       36.2399  -49.8956  -53.8651 H         1 UNK         0.3032 
    123 H123       36.0242  -47.2233  -51.6420 H         1 UNK         0.1094 
    124 H124       37.7499  -46.8131  -53.3391 H         1 UNK         0.0794 
    125 H125       37.9158  -48.4526  -52.7428 H         1 UNK         0.0794 
    126 H126       37.1984  -48.1580  -54.3250 H         1 UNK         0.0794 
    127 H127       34.7448  -45.9200  -52.8813 H         1 UNK         0.3016 
@<TRIPOS>BOND
     1    1    2 1    
     2    1   67 1    
     3    1   68 1    
     4    1   69 1    
     5    2    3 2    
     6    2    4 am   BACKBONE|DICT|INTERRES
     7    4    5 1    
     8    4   70 1    
     9    5    6 1    
    10    5   65 1    
    11    5   71 1    
    12    6    7 1    
    13    6   72 1    
    14    6   73 1    
    15    7    8 1    
    16    8    9 1    
    17    8   74 1    
    18    8   75 1    
    19    9   10 ar   
    20    9   14 ar   
    21   10   11 ar   
    22   10   76 1    
    23   11   12 ar   
    24   11   48 1    
    25   12   13 ar   
    26   12   77 1    
    27   13   14 ar   
    28   13   15 1    
    29   14   78 1    
    30   15   16 1    
    31   15   79 1    
    32   15   80 1    
    33   16   17 1    
    34   17   18 1    
    35   17   81 1    
    36   17   82 1    
    37   18   19 1    
    38   18   22 1    
    39   18   83 1    
    40   19   20 am   BACKBONE|DICT|INTERRES
    41   19   21 2    
    42   20   84 1    
    43   20   85 1    
    44   22   23 am   BACKBONE|DICT|INTERRES
    45   22   86 1    
    46   23   24 2    
    47   23   25 1    
    48   25   26 1    
    49   25   27 1    
    50   25   87 1    
    51   26   88 1    
    52   26   89 1    
    53   26   90 1    
    54   27   28 am   BACKBONE|DICT|INTERRES
    55   27   91 1    
    56   28   29 2    
    57   28   30 1    
    58   30   31 1    
    59   30   32 1    
    60   30   92 1    
    61   31   93 1    
    62   31   94 1    
    63   31   95 1    
    64   32   33 am   BACKBONE|DICT|INTERRES
    65   32   96 1    
    66   33   34 2    
    67   33   35 1    
    68   35   36 1    
    69   35   37 1    
    70   35   97 1    
    71   36   98 1    
    72   36   99 1    
    73   36  100 1    
    74   37   38 am   BACKBONE|DICT|INTERRES
    75   37  101 1    
    76   38   39 2    
    77   38   40 1    
    78   40   41 1    
    79   40   42 1    
    80   40  102 1    
    81   41  103 1    
    82   41  104 1    
    83   41  105 1    
    84   42   43 am   BACKBONE|DICT|INTERRES
    85   42  106 1    
    86   43   44 2    
    87   43   45 1    
    88   45   46 1    
    89   45   49 1    
    90   45  107 1    
    91   46   47 1    
    92   46  108 1    
    93   46  109 1    
    94   47   48 1    
    95   48  110 1    
    96   48  111 1    
    97   49   50 am   BACKBONE|DICT|INTERRES
    98   49  112 1    
    99   50   51 2    
   100   50   52 1    
   101   52   53 1    
   102   52   54 1    
   103   52  113 1    
   104   53  114 1    
   105   53  115 1    
   106   53  116 1    
   107   54   55 am   BACKBONE|DICT|INTERRES
   108   54  117 1    
   109   55   56 2    
   110   55   57 1    
   111   57   58 1    
   112   57   59 1    
   113   57  118 1    
   114   58  119 1    
   115   58  120 1    
   116   58  121 1    
   117   59   60 am   BACKBONE|DICT|INTERRES
   118   59  122 1    
   119   60   61 2    
   120   60   62 1    
   121   62   63 1    
   122   62   64 1    
   123   62  123 1    
   124   63  124 1    
   125   63  125 1    
   126   63  126 1    
   127   64   65 am   BACKBONE|DICT|INTERRES
   128   64  127 1    
   129   65   66 2    
@<TRIPOS>SUBSTRUCTURE
     1 UNK         1 GROUP             0       ****    0 ROOT    
