@<TRIPOS>MOLECULE
3R134
127   129    1
SMALL
USER_CHARGES


@<TRIPOS>ATOM
      1 CA         38.2239  -44.7199  -50.6425 C.3       0 UNK        -0.1968 
      2 C          37.2847  -45.4004  -51.6270 C.2       0 UNK         0.4852 
      3 O          37.7193  -46.2634  -52.3922 O.2       0 UNK        -0.5359 
      4 N          35.9976  -45.0307  -51.6090 N.am      1 UNK        -0.4300 
      5 CA         34.9404  -45.5489  -52.4872 C.3       1 UNK         0.0863 
      6 C6         33.7700  -44.5439  -52.6283 C.3       11 UNK        -0.0953 
      7 S7         34.2846  -42.9230  -53.2923 S.3       11 UNK        -0.2369 
      8 C8         33.6674  -43.0002  -55.0117 C.3       11 UNK         0.0226 
      9 C9         32.1626  -43.2362  -55.1660 C.ar      11 UNK        -0.0699 
     10 C10        31.2430  -42.9107  -54.1599 C.ar      11 UNK        -0.0804 
     11 C11        29.8809  -43.1840  -54.3140 C.ar      11 UNK        -0.0871 
     12 C12        29.4310  -43.7483  -55.5113 C.ar      11 UNK        -0.1008 
     13 C13        30.3326  -44.0704  -56.5299 C.ar      11 UNK        -0.0735 
     14 C14        31.6929  -43.8084  -56.3517 C.ar      11 UNK        -0.0945 
     15 C15        29.8500  -44.7643  -57.7941 C.3       11 UNK         0.0169 
     16 S16        29.4683  -43.6195  -59.1633 S.3       11 UNK        -0.2669 
     17 C17        28.1027  -42.5782  -58.5242 C.3       11 UNK        -0.0850 
     18 CA         26.6814  -43.1870  -58.6741 C.3       10 UNK         0.0855 
     19 C          26.1999  -43.2555  -60.1543 C.2       10 UNK         0.5543 
     20 N          25.7871  -44.4051  -60.6767 N.am      10 UNK        -0.7343 
     21 O          26.1824  -42.2353  -60.8388 O.2       10 UNK        -0.5027 
     22 N          26.5717  -44.4495  -57.9361 N.am      10 UNK        -0.4495 
     23 C          25.4645  -44.9417  -57.3733 C.2       10 UNK         0.4903 
     24 O          24.3866  -44.3466  -57.3416 O.2       10 UNK        -0.4860 
     25 CA         25.6053  -46.3384  -56.7334 C.3       9 UNK         0.0227 
     26 CB         24.2497  -47.0477  -56.5381 C.3       9 UNK        -0.1964 
     27 N          26.5507  -47.2287  -57.4265 N.am      9 UNK        -0.4231 
     28 C          26.5085  -47.6027  -58.7161 C.2       9 UNK         0.5014 
     29 O          25.6997  -47.1637  -59.5345 O.2       9 UNK        -0.5270 
     30 CA         27.5452  -48.6360  -59.1768 C.3       8 UNK         0.0284 
     31 CB         28.8281  -47.9441  -59.6668 C.3       8 UNK        -0.1977 
     32 N          27.8734  -49.5831  -58.1082 N.am      8 UNK        -0.4342 
     33 C          27.3253  -50.7983  -57.9828 C.2       8 UNK         0.5039 
     34 O          26.4980  -51.2655  -58.7671 O.2       8 UNK        -0.5547 
     35 CA         27.7893  -51.6476  -56.7900 C.3       7 UNK         0.0281 
     36 CB         29.2332  -52.1376  -56.9946 C.3       7 UNK        -0.1963 
     37 N          27.6901  -50.9529  -55.5064 N.am      7 UNK        -0.4444 
     38 C          26.5465  -50.6582  -54.8720 C.2       7 UNK         0.5104 
     39 O          25.4267  -50.8726  -55.3359 O.2       7 UNK        -0.5100 
     40 CA         26.6749  -50.0323  -53.4738 C.3       6 UNK         0.0396 
     41 CB         27.0471  -51.1006  -52.4319 C.3       6 UNK        -0.1801 
     42 N          27.6839  -48.9718  -53.4723 N.am      6 UNK        -0.4747 
     43 C          27.4047  -47.6610  -53.5006 C.2       6 UNK         0.5012 
     44 O          26.2637  -47.2163  -53.3773 O.2       6 UNK        -0.5003 
     45 CA         28.5719  -46.6729  -53.7437 C.3       5 UNK         0.0782 
     46 C46        28.7721  -45.6657  -52.5788 C.3       11 UNK        -0.0868 
     47 S47        27.7177  -44.1866  -52.7955 S.3       11 UNK        -0.2515 
     48 C48        28.9166  -42.8592  -53.1749 C.3       11 UNK         0.0199 
     49 N          29.8266  -47.3242  -54.1390 N.am      5 UNK        -0.4607 
     50 C          30.0381  -47.8440  -55.3548 C.2       4 UNK         0.5031 
     51 O          29.1825  -47.8678  -56.2416 O.2       4 UNK        -0.5119 
     52 CA         31.4072  -48.4929  -55.6125 C.3       4 UNK         0.0263 
     53 CB         32.4558  -47.4150  -55.9296 C.3       4 UNK        -0.1967 
     54 N          31.9055  -49.3474  -54.5283 N.am      4 UNK        -0.4237 
     55 C          31.2454  -50.3352  -53.9096 C.2       3 UNK         0.4908 
     56 O          30.0583  -50.5851  -54.1128 O.2       3 UNK        -0.5102 
     57 CA         32.0094  -51.2017  -52.8889 C.3       3 UNK         0.0241 
     58 CB         32.5387  -52.4834  -53.5608 C.3       3 UNK        -0.1971 
     59 N          33.0695  -50.5193  -52.1284 N.am      3 UNK        -0.4139 
     60 C          34.2102  -49.9768  -52.5763 C.2       2 UNK         0.5016 
     61 O          34.5532  -49.9606  -53.7607 O.2       2 UNK        -0.5319 
     62 CA         35.1006  -49.2887  -51.5295 C.3       2 UNK         0.0286 
     63 CB         36.4326  -50.0379  -51.3642 C.3       2 UNK        -0.1963 
     64 N          35.3703  -47.8998  -51.9045 N.am      2 UNK        -0.4790 
     65 C          34.4456  -46.9374  -52.0193 C.2       1 UNK         0.5024 
     66 O          33.2540  -47.1152  -51.7553 O.2       1 UNK        -0.4888 
     67 H67        38.6655  -45.4583  -49.9738 H         1 UNK         0.0892 
     68 H68        37.7089  -43.9763  -50.0346 H         1 UNK         0.0892 
     69 H69        39.0299  -44.2197  -51.1785 H         1 UNK         0.0892 
     70 H70        35.6977  -44.3278  -50.9484 H         1 UNK         0.3107 
     71 H71        35.3636  -45.6942  -53.4837 H         1 UNK         0.0773 
     72 H72        32.9927  -44.9637  -53.2682 H         1 UNK         0.0680 
     73 H73        33.2966  -44.3700  -51.6602 H         1 UNK         0.0680 
     74 H74        33.9233  -42.0655  -55.5119 H         1 UNK         0.0650 
     75 H75        34.2173  -43.7889  -55.5277 H         1 UNK         0.0650 
     76 H76        31.5865  -42.4591  -53.2402 H         1 UNK         0.1397 
     77 H77        28.3777  -43.9529  -55.6417 H         1 UNK         0.1363 
     78 H78        32.3915  -44.0673  -57.1358 H         1 UNK         0.1355 
     79 H79        28.9933  -45.3956  -57.5681 H         1 UNK         0.0707 
     80 H80        30.6237  -45.4497  -58.1422 H         1 UNK         0.0707 
     81 H81        28.1493  -41.6196  -59.0443 H         1 UNK         0.1034 
     82 H82        28.2904  -42.3272  -57.4815 H         1 UNK         0.1034 
     83 H83        25.9993  -42.4805  -58.1973 H         1 UNK         0.0482 
     84 H84        25.4734  -44.4220  -61.6337 H         1 UNK         0.3460 
     85 H85        25.7732  -45.2600  -60.1308 H         1 UNK         0.3460 
     86 H86        27.3916  -45.0339  -57.9627 H         1 UNK         0.2989 
     87 H87        26.0261  -46.1569  -55.7461 H         1 UNK         0.0559 
     88 H88        23.7454  -47.2229  -57.4889 H         1 UNK         0.0848 
     89 H89        23.5799  -46.4520  -55.9168 H         1 UNK         0.0848 
     90 H90        24.3763  -48.0101  -56.0415 H         1 UNK         0.0848 
     91 H91        27.3126  -47.5947  -56.8641 H         1 UNK         0.3144 
     92 H92        27.1145  -49.1678  -60.0281 H         1 UNK         0.0727 
     93 H93        29.5087  -48.6617  -60.1250 H         1 UNK         0.0790 
     94 H94        29.3641  -47.4540  -58.8559 H         1 UNK         0.0790 
     95 H95        28.6040  -47.1854  -60.4183 H         1 UNK         0.0790 
     96 H96        28.5120  -49.2507  -57.3914 H         1 UNK         0.3215 
     97 H97        27.1423  -52.5264  -56.7419 H         1 UNK         0.0863 
     98 H98        29.5336  -52.8234  -56.2021 H         1 UNK         0.0808 
     99 H99        29.9459  -51.3123  -57.0062 H         1 UNK         0.0808 
    100 H100       29.3348  -52.6714  -57.9405 H         1 UNK         0.0808 
    101 H101       28.5689  -50.7763  -55.0210 H         1 UNK         0.3118 
    102 H102       25.6967  -49.6324  -53.1987 H         1 UNK         0.0546 
    103 H103       26.3038  -51.8986  -52.4109 H         1 UNK         0.0828 
    104 H104       27.0922  -50.6743  -51.4298 H         1 UNK         0.0828 
    105 H105       28.0128  -51.5614  -52.6419 H         1 UNK         0.0828 
    106 H106       28.6455  -49.2691  -53.5999 H         1 UNK         0.3005 
    107 H107       28.2575  -46.1012  -54.6178 H         1 UNK         0.1257 
    108 H108       29.8120  -45.3393  -52.5236 H         1 UNK         0.0775 
    109 H109       28.5588  -46.1225  -51.6106 H         1 UNK         0.0775 
    110 H110       28.3656  -41.9538  -53.4321 H         1 UNK         0.0840 
    111 H111       29.4670  -42.6323  -52.2605 H         1 UNK         0.0840 
    112 H112       30.5649  -47.3651  -53.4507 H         1 UNK         0.2987 
    113 H113       31.3002  -49.1305  -56.4920 H         1 UNK         0.0785 
    114 H114       32.6188  -46.7467  -55.0830 H         1 UNK         0.0798 
    115 H115       32.1424  -46.8017  -56.7745 H         1 UNK         0.0798 
    116 H116       33.4154  -47.8595  -56.1943 H         1 UNK         0.0798 
    117 H117       32.8992  -49.2838  -54.3208 H         1 UNK         0.3079 
    118 H118       31.2712  -51.5073  -52.1455 H         1 UNK         0.0794 
    119 H119       33.2789  -52.2653  -54.3313 H         1 UNK         0.0786 
    120 H120       31.7280  -53.0349  -54.0393 H         1 UNK         0.0786 
    121 H121       32.9989  -53.1517  -52.8330 H         1 UNK         0.0786 
    122 H122       32.8745  -50.4262  -51.1406 H         1 UNK         0.3032 
    123 H123       34.5864  -49.2824  -50.5658 H         1 UNK         0.1094 
    124 H124       37.0540  -49.5787  -50.5950 H         1 UNK         0.0794 
    125 H125       36.2636  -51.0743  -51.0687 H         1 UNK         0.0794 
    126 H126       37.0050  -50.0526  -52.2929 H         1 UNK         0.0794 
    127 H127       36.3270  -47.6571  -52.1454 H         1 UNK         0.3016 
@<TRIPOS>BOND
     1    1    2 1    
     2    1   67 1    
     3    1   68 1    
     4    1   69 1    
     5    2    3 2    
     6    2    4 am   BACKBONE|DICT|INTERRES
     7    4    5 1    
     8    4   70 1    
     9    5    6 1    
    10    5   65 1    
    11    5   71 1    
    12    6    7 1    
    13    6   72 1    
    14    6   73 1    
    15    7    8 1    
    16    8    9 1    
    17    8   74 1    
    18    8   75 1    
    19    9   10 ar   
    20    9   14 ar   
    21   10   11 ar   
    22   10   76 1    
    23   11   12 ar   
    24   11   48 1    
    25   12   13 ar   
    26   12   77 1    
    27   13   14 ar   
    28   13   15 1    
    29   14   78 1    
    30   15   16 1    
    31   15   79 1    
    32   15   80 1    
    33   16   17 1    
    34   17   18 1    
    35   17   81 1    
    36   17   82 1    
    37   18   19 1    
    38   18   22 1    
    39   18   83 1    
    40   19   20 am   BACKBONE|DICT|INTERRES
    41   19   21 2    
    42   20   84 1    
    43   20   85 1    
    44   22   23 am   BACKBONE|DICT|INTERRES
    45   22   86 1    
    46   23   24 2    
    47   23   25 1    
    48   25   26 1    
    49   25   27 1    
    50   25   87 1    
    51   26   88 1    
    52   26   89 1    
    53   26   90 1    
    54   27   28 am   BACKBONE|DICT|INTERRES
    55   27   91 1    
    56   28   29 2    
    57   28   30 1    
    58   30   31 1    
    59   30   32 1    
    60   30   92 1    
    61   31   93 1    
    62   31   94 1    
    63   31   95 1    
    64   32   33 am   BACKBONE|DICT|INTERRES
    65   32   96 1    
    66   33   34 2    
    67   33   35 1    
    68   35   36 1    
    69   35   37 1    
    70   35   97 1    
    71   36   98 1    
    72   36   99 1    
    73   36  100 1    
    74   37   38 am   BACKBONE|DICT|INTERRES
    75   37  101 1    
    76   38   39 2    
    77   38   40 1    
    78   40   41 1    
    79   40   42 1    
    80   40  102 1    
    81   41  103 1    
    82   41  104 1    
    83   41  105 1    
    84   42   43 am   BACKBONE|DICT|INTERRES
    85   42  106 1    
    86   43   44 2    
    87   43   45 1    
    88   45   46 1    
    89   45   49 1    
    90   45  107 1    
    91   46   47 1    
    92   46  108 1    
    93   46  109 1    
    94   47   48 1    
    95   48  110 1    
    96   48  111 1    
    97   49   50 am   BACKBONE|DICT|INTERRES
    98   49  112 1    
    99   50   51 2    
   100   50   52 1    
   101   52   53 1    
   102   52   54 1    
   103   52  113 1    
   104   53  114 1    
   105   53  115 1    
   106   53  116 1    
   107   54   55 am   BACKBONE|DICT|INTERRES
   108   54  117 1    
   109   55   56 2    
   110   55   57 1    
   111   57   58 1    
   112   57   59 1    
   113   57  118 1    
   114   58  119 1    
   115   58  120 1    
   116   58  121 1    
   117   59   60 am   BACKBONE|DICT|INTERRES
   118   59  122 1    
   119   60   61 2    
   120   60   62 1    
   121   62   63 1    
   122   62   64 1    
   123   62  123 1    
   124   63  124 1    
   125   63  125 1    
   126   63  126 1    
   127   64   65 am   BACKBONE|DICT|INTERRES
   128   64  127 1    
   129   65   66 2    
@<TRIPOS>SUBSTRUCTURE
     1 UNK         1 GROUP             0       ****    0 ROOT    
