@<TRIPOS>MOLECULE
3R134
127   129    1
SMALL
USER_CHARGES


@<TRIPOS>ATOM
      1 CA         33.2320  -47.8988  -58.4493 C.3       0 UNK        -0.1968 
      2 C          33.4989  -47.4595  -57.0182 C.2       0 UNK         0.4852 
      3 O          33.4038  -48.2762  -56.0981 O.2       0 UNK        -0.5359 
      4 N          33.8131  -46.1733  -56.8132 N.am      1 UNK        -0.4300 
      5 CA         34.1247  -45.5977  -55.5015 C.3       1 UNK         0.0863 
      6 C6         34.1905  -44.0506  -55.5321 C.3       11 UNK        -0.0953 
      7 S7         32.6703  -43.2654  -56.1657 S.3       11 UNK        -0.2369 
      8 C8         32.0598  -42.3426  -54.7195 C.3       11 UNK         0.0226 
      9 C9         31.0636  -43.1381  -53.8847 C.ar      11 UNK        -0.0699 
     10 C10        31.5043  -43.9849  -52.8618 C.ar      11 UNK        -0.0804 
     11 C11        30.5827  -44.6416  -52.0375 C.ar      11 UNK        -0.0871 
     12 C12        29.2140  -44.4534  -52.2509 C.ar      11 UNK        -0.1008 
     13 C13        28.7602  -43.6185  -53.2754 C.ar      11 UNK        -0.0735 
     14 C14        29.6900  -42.9706  -54.0942 C.ar      11 UNK        -0.0945 
     15 C15        27.2679  -43.3668  -53.4427 C.3       11 UNK         0.0169 
     16 S16        26.5153  -44.4683  -54.6782 S.3       11 UNK        -0.2669 
     17 C17        26.4946  -43.3920  -56.1561 C.3       11 UNK        -0.0850 
     18 CA         26.4833  -44.1949  -57.4922 C.3       10 UNK         0.0855 
     19 C          26.3521  -43.3036  -58.7658 C.2       10 UNK         0.5543 
     20 N          25.5761  -42.2283  -58.7136 N.am      10 UNK        -0.7343 
     21 O          26.9006  -43.5993  -59.8261 O.2       10 UNK        -0.5027 
     22 N          27.5836  -45.1660  -57.5634 N.am      10 UNK        -0.4495 
     23 C          28.8936  -44.8804  -57.5679 C.2       10 UNK         0.4903 
     24 O          29.3514  -43.7382  -57.6108 O.2       10 UNK        -0.4860 
     25 CA         29.8654  -46.0693  -57.4508 C.3       9 UNK         0.0227 
     26 CB         30.2761  -46.2231  -55.9800 C.3       9 UNK        -0.1964 
     27 N          29.2902  -47.3333  -57.9236 N.am      9 UNK        -0.4231 
     28 C          29.0385  -47.6055  -59.2130 C.2       9 UNK         0.5014 
     29 O          29.4048  -46.8824  -60.1403 O.2       9 UNK        -0.5270 
     30 CA         28.2324  -48.8775  -59.5481 C.3       8 UNK         0.0284 
     31 CB         29.1448  -49.9554  -60.1578 C.3       8 UNK        -0.1977 
     32 N          27.4633  -49.4554  -58.4379 N.am      8 UNK        -0.4342 
     33 C          26.4714  -48.8442  -57.7749 C.2       8 UNK         0.5039 
     34 O          26.1376  -47.6764  -57.9822 O.2       8 UNK        -0.5547 
     35 CA         25.7339  -49.6415  -56.6883 C.3       7 UNK         0.0281 
     36 CB         26.2410  -51.0845  -56.4807 C.3       7 UNK        -0.1963 
     37 N          25.8536  -48.8965  -55.4408 N.am      7 UNK        -0.4444 
     38 C          24.8691  -48.6528  -54.5680 C.2       7 UNK         0.5104 
     39 O          23.7246  -49.0919  -54.6944 O.2       7 UNK        -0.5100 
     40 CA         25.2033  -47.7430  -53.3642 C.3       6 UNK         0.0396 
     41 CB         24.4627  -48.1624  -52.0764 C.3       6 UNK        -0.1801 
     42 N          26.6453  -47.5700  -53.1300 N.am      6 UNK        -0.4747 
     43 C          27.5166  -48.5095  -52.7317 C.2       6 UNK         0.5012 
     44 O          27.2004  -49.6532  -52.3968 O.2       6 UNK        -0.5003 
     45 CA         29.0047  -48.1113  -52.7412 C.3       5 UNK         0.0782 
     46 C46        29.5201  -47.8475  -51.3084 C.3       11 UNK        -0.0868 
     47 S47        31.2434  -47.2493  -51.3125 S.3       11 UNK        -0.2515 
     48 C48        31.0629  -45.4935  -50.8699 C.3       11 UNK         0.0199 
     49 N          29.8072  -49.1247  -53.4326 N.am      5 UNK        -0.4607 
     50 C          29.6736  -49.4857  -54.7142 C.2       4 UNK         0.5031 
     51 O          28.8671  -48.9651  -55.4899 O.2       4 UNK        -0.5119 
     52 CA         30.6251  -50.5836  -55.2148 C.3       4 UNK         0.0263 
     53 CB         30.6269  -50.7026  -56.7480 C.3       4 UNK        -0.1967 
     54 N          31.9949  -50.3285  -54.7663 N.am      4 UNK        -0.4237 
     55 C          32.6223  -50.9874  -53.7830 C.2       3 UNK         0.4908 
     56 O          32.0911  -51.8576  -53.0924 O.2       3 UNK        -0.5102 
     57 CA         34.0837  -50.6055  -53.5142 C.3       3 UNK         0.0241 
     58 CB         35.0067  -51.2373  -54.5699 C.3       3 UNK        -0.1971 
     59 N          34.2550  -49.1529  -53.5307 N.am      3 UNK        -0.4139 
     60 C          34.5072  -48.3978  -52.4542 C.2       2 UNK         0.5016 
     61 O          34.6836  -48.8525  -51.3219 O.2       2 UNK        -0.5319 
     62 CA         34.6166  -46.8838  -52.7043 C.3       2 UNK         0.0286 
     63 CB         35.0302  -46.0969  -51.4463 C.3       2 UNK        -0.1963 
     64 N          35.6143  -46.6523  -53.7515 N.am      2 UNK        -0.4790 
     65 C          35.4743  -46.1633  -54.9915 C.2       1 UNK         0.5024 
     66 O          36.4386  -46.1312  -55.7567 O.2       1 UNK        -0.4888 
     67 H67        33.8250  -48.7811  -58.6871 H         1 UNK         0.0892 
     68 H68        32.1798  -48.1501  -58.5747 H         1 UNK         0.0892 
     69 H69        33.4818  -47.1183  -59.1672 H         1 UNK         0.0892 
     70 H70        33.8885  -45.5396  -57.5956 H         1 UNK         0.3107 
     71 H71        33.2940  -45.8760  -54.8596 H         1 UNK         0.0773 
     72 H72        35.0147  -43.7148  -56.1647 H         1 UNK         0.0680 
     73 H73        34.4069  -43.6680  -54.5334 H         1 UNK         0.0680 
     74 H74        31.5823  -41.4312  -55.0820 H         1 UNK         0.0650 
     75 H75        32.8925  -42.0076  -54.0998 H         1 UNK         0.0650 
     76 H76        32.5643  -44.1044  -52.6862 H         1 UNK         0.1397 
     77 H77        28.4978  -44.9329  -51.5985 H         1 UNK         0.1363 
     78 H78        29.3461  -42.3110  -54.8786 H         1 UNK         0.1355 
     79 H79        26.7584  -43.5224  -52.4905 H         1 UNK         0.0707 
     80 H80        27.0876  -42.3234  -53.7061 H         1 UNK         0.0707 
     81 H81        25.6096  -42.7602  -56.0748 H         1 UNK         0.1034 
     82 H82        27.3515  -42.7178  -56.1314 H         1 UNK         0.1034 
     83 H83        25.5806  -44.8067  -57.4941 H         1 UNK         0.0482 
     84 H84        25.0803  -41.9749  -57.8742 H         1 UNK         0.3460 
     85 H85        25.4741  -41.6629  -59.5420 H         1 UNK         0.3460 
     86 H86        27.2871  -46.1364  -57.6056 H         1 UNK         0.2989 
     87 H87        30.7564  -45.8474  -58.0414 H         1 UNK         0.0559 
     88 H88        29.4006  -46.3186  -55.3401 H         1 UNK         0.0848 
     89 H89        30.9151  -47.0884  -55.8185 H         1 UNK         0.0848 
     90 H90        30.8222  -45.3492  -55.6333 H         1 UNK         0.0848 
     91 H91        28.9785  -47.9853  -57.2091 H         1 UNK         0.3144 
     92 H92        27.5072  -48.5878  -60.3115 H         1 UNK         0.0727 
     93 H93        28.5745  -50.8278  -60.4774 H         1 UNK         0.0790 
     94 H94        29.9092  -50.2891  -59.4576 H         1 UNK         0.0790 
     95 H95        29.6625  -49.5723  -61.0384 H         1 UNK         0.0790 
     96 H96        27.6801  -50.4083  -58.1866 H         1 UNK         0.3215 
     97 H97        24.6878  -49.6846  -56.9988 H         1 UNK         0.0863 
     98 H98        25.6505  -51.5938  -55.7188 H         1 UNK         0.0808 
     99 H99        27.2809  -51.1126  -56.1546 H         1 UNK         0.0808 
    100 H100       26.1527  -51.6748  -57.3936 H         1 UNK         0.0808 
    101 H101       26.7705  -48.5022  -55.2657 H         1 UNK         0.3118 
    102 H102       24.8303  -46.7551  -53.6364 H         1 UNK         0.0546 
    103 H103       23.3822  -48.1050  -52.2127 H         1 UNK         0.0828 
    104 H104       24.7164  -47.5100  -51.2411 H         1 UNK         0.0828 
    105 H105       24.6943  -49.1874  -51.7868 H         1 UNK         0.0828 
    106 H106       27.0005  -46.6596  -53.3943 H         1 UNK         0.3005 
    107 H107       29.1062  -47.1840  -53.3048 H         1 UNK         0.1257 
    108 H108       29.4810  -48.7629  -50.7146 H         1 UNK         0.0775 
    109 H109       28.8853  -47.1280  -50.7893 H         1 UNK         0.0775 
    110 H110       30.3860  -45.3935  -50.0201 H         1 UNK         0.0840 
    111 H111       32.0284  -45.1245  -50.5214 H         1 UNK         0.0840 
    112 H112       30.4940  -49.6036  -52.8692 H         1 UNK         0.2987 
    113 H113       30.2602  -51.5290  -54.8083 H         1 UNK         0.0785 
    114 H114       29.6393  -50.9765  -57.1172 H         1 UNK         0.0798 
    115 H115       31.3207  -51.4725  -57.0852 H         1 UNK         0.0798 
    116 H116       30.9130  -49.7636  -57.2218 H         1 UNK         0.0798 
    117 H117       32.4978  -49.5974  -55.2684 H         1 UNK         0.3079 
    118 H118       34.3581  -51.0140  -52.5392 H         1 UNK         0.0794 
    119 H119       36.0541  -51.0255  -54.3542 H         1 UNK         0.0786 
    120 H120       34.7914  -50.8661  -55.5730 H         1 UNK         0.0786 
    121 H121       34.8930  -52.3221  -54.5900 H         1 UNK         0.0786 
    122 H122       34.1103  -48.6985  -54.4299 H         1 UNK         0.3032 
    123 H123       33.6177  -46.5502  -52.9706 H         1 UNK         0.1094 
    124 H124       36.0128  -46.4005  -51.0832 H         1 UNK         0.0794 
    125 H125       35.0620  -45.0251  -51.6426 H         1 UNK         0.0794 
    126 H126       34.3194  -46.2555  -50.6342 H         1 UNK         0.0794 
    127 H127       36.5321  -47.0045  -53.5174 H         1 UNK         0.3016 
@<TRIPOS>BOND
     1    1    2 1    
     2    1   67 1    
     3    1   68 1    
     4    1   69 1    
     5    2    3 2    
     6    2    4 am   BACKBONE|DICT|INTERRES
     7    4    5 1    
     8    4   70 1    
     9    5    6 1    
    10    5   65 1    
    11    5   71 1    
    12    6    7 1    
    13    6   72 1    
    14    6   73 1    
    15    7    8 1    
    16    8    9 1    
    17    8   74 1    
    18    8   75 1    
    19    9   10 ar   
    20    9   14 ar   
    21   10   11 ar   
    22   10   76 1    
    23   11   12 ar   
    24   11   48 1    
    25   12   13 ar   
    26   12   77 1    
    27   13   14 ar   
    28   13   15 1    
    29   14   78 1    
    30   15   16 1    
    31   15   79 1    
    32   15   80 1    
    33   16   17 1    
    34   17   18 1    
    35   17   81 1    
    36   17   82 1    
    37   18   19 1    
    38   18   22 1    
    39   18   83 1    
    40   19   20 am   BACKBONE|DICT|INTERRES
    41   19   21 2    
    42   20   84 1    
    43   20   85 1    
    44   22   23 am   BACKBONE|DICT|INTERRES
    45   22   86 1    
    46   23   24 2    
    47   23   25 1    
    48   25   26 1    
    49   25   27 1    
    50   25   87 1    
    51   26   88 1    
    52   26   89 1    
    53   26   90 1    
    54   27   28 am   BACKBONE|DICT|INTERRES
    55   27   91 1    
    56   28   29 2    
    57   28   30 1    
    58   30   31 1    
    59   30   32 1    
    60   30   92 1    
    61   31   93 1    
    62   31   94 1    
    63   31   95 1    
    64   32   33 am   BACKBONE|DICT|INTERRES
    65   32   96 1    
    66   33   34 2    
    67   33   35 1    
    68   35   36 1    
    69   35   37 1    
    70   35   97 1    
    71   36   98 1    
    72   36   99 1    
    73   36  100 1    
    74   37   38 am   BACKBONE|DICT|INTERRES
    75   37  101 1    
    76   38   39 2    
    77   38   40 1    
    78   40   41 1    
    79   40   42 1    
    80   40  102 1    
    81   41  103 1    
    82   41  104 1    
    83   41  105 1    
    84   42   43 am   BACKBONE|DICT|INTERRES
    85   42  106 1    
    86   43   44 2    
    87   43   45 1    
    88   45   46 1    
    89   45   49 1    
    90   45  107 1    
    91   46   47 1    
    92   46  108 1    
    93   46  109 1    
    94   47   48 1    
    95   48  110 1    
    96   48  111 1    
    97   49   50 am   BACKBONE|DICT|INTERRES
    98   49  112 1    
    99   50   51 2    
   100   50   52 1    
   101   52   53 1    
   102   52   54 1    
   103   52  113 1    
   104   53  114 1    
   105   53  115 1    
   106   53  116 1    
   107   54   55 am   BACKBONE|DICT|INTERRES
   108   54  117 1    
   109   55   56 2    
   110   55   57 1    
   111   57   58 1    
   112   57   59 1    
   113   57  118 1    
   114   58  119 1    
   115   58  120 1    
   116   58  121 1    
   117   59   60 am   BACKBONE|DICT|INTERRES
   118   59  122 1    
   119   60   61 2    
   120   60   62 1    
   121   62   63 1    
   122   62   64 1    
   123   62  123 1    
   124   63  124 1    
   125   63  125 1    
   126   63  126 1    
   127   64   65 am   BACKBONE|DICT|INTERRES
   128   64  127 1    
   129   65   66 2    
@<TRIPOS>SUBSTRUCTURE
     1 UNK         1 GROUP             0       ****    0 ROOT    
