@<TRIPOS>MOLECULE
3R134
127   129    1
SMALL
USER_CHARGES


@<TRIPOS>ATOM
      1 CA         29.3860  -43.9895  -52.6454 C.3       0 UNK        -0.1968 
      2 C          30.4729  -44.1845  -51.5995 C.2       0 UNK         0.4852 
      3 O          30.2015  -44.0432  -50.4064 O.2       0 UNK        -0.5359 
      4 N          31.6944  -44.5028  -52.0436 N.am      1 UNK        -0.4300 
      5 CA         32.8553  -44.7924  -51.2015 C.3       1 UNK         0.0863 
      6 C6         34.1313  -44.0451  -51.6854 C.3       11 UNK        -0.0953 
      7 S7         34.5273  -44.2556  -53.4583 S.3       11 UNK        -0.2369 
      8 C8         33.7881  -42.7635  -54.1999 C.3       11 UNK         0.0226 
      9 C9         32.9378  -43.1108  -55.4137 C.ar      11 UNK        -0.0699 
     10 C10        33.5203  -43.7420  -56.5161 C.ar      11 UNK        -0.0804 
     11 C11        32.7542  -44.0669  -57.6380 C.ar      11 UNK        -0.0871 
     12 C12        31.3973  -43.7312  -57.6649 C.ar      11 UNK        -0.1008 
     13 C13        30.8020  -43.0959  -56.5711 C.ar      11 UNK        -0.0735 
     14 C14        31.5764  -42.7908  -55.4463 C.ar      11 UNK        -0.0945 
     15 C15        29.3264  -42.7282  -56.6123 C.3       11 UNK         0.0169 
     16 S16        28.2718  -44.1933  -56.3760 S.3       11 UNK        -0.2669 
     17 C17        26.9254  -43.5114  -55.3514 C.3       11 UNK        -0.0850 
     18 CA         26.1516  -44.6260  -54.5880 C.3       10 UNK         0.0855 
     19 C          25.2843  -44.0745  -53.4137 C.2       10 UNK         0.5543 
     20 N          24.1737  -44.7098  -53.0595 N.am      10 UNK        -0.7343 
     21 O          25.6373  -43.0784  -52.7871 O.2       10 UNK        -0.5027 
     22 N          25.4489  -45.5628  -55.4860 N.am      10 UNK        -0.4495 
     23 C          24.4157  -45.2615  -56.2864 C.2       10 UNK         0.4903 
     24 O          23.9415  -44.1290  -56.3951 O.2       10 UNK        -0.4860 
     25 CA         23.7872  -46.4311  -57.0720 C.3       9 UNK         0.0227 
     26 CB         22.7351  -45.9686  -58.1031 C.3       9 UNK        -0.1964 
     27 N          24.7751  -47.3119  -57.7041 N.am      9 UNK        -0.4231 
     28 C          25.7045  -46.9911  -58.6159 C.2       9 UNK         0.5014 
     29 O          25.8581  -45.8569  -59.0724 O.2       9 UNK        -0.5270 
     30 CA         26.6016  -48.1485  -59.1065 C.3       8 UNK         0.0284 
     31 CB         27.7315  -47.6690  -60.0376 C.3       8 UNK        -0.1977 
     32 N          27.1827  -48.9082  -57.9937 N.am      8 UNK        -0.4342 
     33 C          26.5379  -49.8427  -57.2768 C.2       8 UNK         0.5039 
     34 O          25.3750  -50.1775  -57.5073 O.2       8 UNK        -0.5547 
     35 CA         27.2676  -50.4789  -56.0770 C.3       7 UNK         0.0281 
     36 CB         27.8767  -51.8312  -56.4786 C.3       7 UNK        -0.1963 
     37 N          28.3109  -49.6305  -55.4979 N.am      7 UNK        -0.4444 
     38 C          28.1110  -48.4132  -54.9720 C.2       7 UNK         0.5104 
     39 O          26.9948  -47.9237  -54.7943 O.2       7 UNK        -0.5100 
     40 CA         29.3620  -47.5796  -54.6340 C.3       6 UNK         0.0396 
     41 CB         29.6181  -47.5904  -53.1208 C.3       6 UNK        -0.1801 
     42 N          30.5811  -47.9853  -55.3513 N.am      6 UNK        -0.4747 
     43 C          30.7203  -47.9809  -56.6891 C.2       6 UNK         0.5012 
     44 O          29.8041  -47.6818  -57.4541 O.2       6 UNK        -0.5003 
     45 CA         32.0548  -48.4615  -57.2898 C.3       5 UNK         0.0782 
     46 C46        33.0555  -47.3038  -57.5297 C.3       11 UNK        -0.0868 
     47 S47        32.6971  -46.4372  -59.0984 S.3       11 UNK        -0.2515 
     48 C48        33.3996  -44.7811  -58.8165 C.3       11 UNK         0.0199 
     49 N          32.6372  -49.5422  -56.4888 N.am      5 UNK        -0.4607 
     50 C          32.8752  -50.7766  -56.9567 C.2       4 UNK         0.5031 
     51 O          32.6917  -51.1129  -58.1271 O.2       4 UNK        -0.5119 
     52 CA         33.4030  -51.8342  -55.9686 C.3       4 UNK         0.0263 
     53 CB         34.9307  -51.9596  -56.0883 C.3       4 UNK        -0.1967 
     54 N          33.0538  -51.5848  -54.5694 N.am      4 UNK        -0.4237 
     55 C          31.8100  -51.5120  -54.0748 C.2       3 UNK         0.4908 
     56 O          30.7900  -51.6811  -54.7424 O.2       3 UNK        -0.5102 
     57 CA         31.6808  -51.1427  -52.5871 C.3       3 UNK         0.0241 
     58 CB         31.5972  -52.4158  -51.7297 C.3       3 UNK        -0.1971 
     59 N          32.7486  -50.2762  -52.0661 N.am      3 UNK        -0.4139 
     60 C          33.1312  -49.0957  -52.5753 C.2       2 UNK         0.5016 
     61 O          32.6921  -48.6175  -53.6256 O.2       2 UNK        -0.5319 
     62 CA         34.2375  -48.3509  -51.8138 C.3       2 UNK         0.0286 
     63 CB         35.5981  -48.5944  -52.4859 C.3       2 UNK        -0.1963 
     64 N          33.9800  -46.9116  -51.7693 N.am      2 UNK        -0.4790 
     65 C          33.0008  -46.3232  -51.0706 C.2       1 UNK         0.5024 
     66 O          32.2293  -46.9422  -50.3357 O.2       1 UNK        -0.4888 
     67 H67        28.4826  -44.5202  -52.3473 H         1 UNK         0.0892 
     68 H68        29.6897  -44.3632  -53.6230 H         1 UNK         0.0892 
     69 H69        29.1420  -42.9320  -52.7416 H         1 UNK         0.0892 
     70 H70        31.8530  -44.6198  -53.0347 H         1 UNK         0.3107 
     71 H71        32.6646  -44.4352  -50.1872 H         1 UNK         0.0773 
     72 H72        34.0265  -42.9805  -51.4723 H         1 UNK         0.0680 
     73 H73        34.9981  -44.3599  -51.1013 H         1 UNK         0.0680 
     74 H74        33.1907  -42.2272  -53.4616 H         1 UNK         0.0650 
     75 H75        34.5868  -42.0843  -54.5007 H         1 UNK         0.0650 
     76 H76        34.5724  -43.9918  -56.4902 H         1 UNK         0.1397 
     77 H77        30.7992  -43.9804  -58.5311 H         1 UNK         0.1363 
     78 H78        31.1204  -42.2940  -54.6011 H         1 UNK         0.1355 
     79 H79        29.0863  -42.2699  -57.5727 H         1 UNK         0.0707 
     80 H80        29.1111  -41.9735  -55.8549 H         1 UNK         0.0707 
     81 H81        26.2552  -42.9232  -55.9794 H         1 UNK         0.1034 
     82 H82        27.3681  -42.8089  -54.6442 H         1 UNK         0.1034 
     83 H83        26.8994  -45.2381  -54.0837 H         1 UNK         0.0482 
     84 H84        23.8820  -45.5390  -53.5510 H         1 UNK         0.3460 
     85 H85        23.6243  -44.3554  -52.2926 H         1 UNK         0.3460 
     86 H86        25.7889  -46.5191  -55.4443 H         1 UNK         0.2989 
     87 H87        23.2698  -47.0440  -56.3327 H         1 UNK         0.0559 
     88 H88        22.2811  -46.8164  -58.6159 H         1 UNK         0.0848 
     89 H89        23.1700  -45.3132  -58.8585 H         1 UNK         0.0848 
     90 H90        21.9289  -45.4157  -57.6192 H         1 UNK         0.0848 
     91 H91        24.7484  -48.2878  -57.4206 H         1 UNK         0.3144 
     92 H92        25.9646  -48.8184  -59.6879 H         1 UNK         0.0727 
     93 H93        28.3606  -48.4978  -60.3623 H         1 UNK         0.0790 
     94 H94        28.3713  -46.9328  -59.5492 H         1 UNK         0.0790 
     95 H95        27.3250  -47.2000  -60.9345 H         1 UNK         0.0790 
     96 H96        28.1157  -48.6213  -57.7066 H         1 UNK         0.3215 
     97 H97        26.5196  -50.6555  -55.3012 H         1 UNK         0.0863 
     98 H98        28.2818  -52.3555  -55.6130 H         1 UNK         0.0808 
     99 H99        28.6813  -51.7123  -57.2055 H         1 UNK         0.0808 
    100 H100       27.1247  -52.4832  -56.9256 H         1 UNK         0.0808 
    101 H101       29.2616  -49.9710  -55.5618 H         1 UNK         0.3118 
    102 H102       29.1506  -46.5515  -54.9281 H         1 UNK         0.0546 
    103 H103       28.7712  -47.1676  -52.5791 H         1 UNK         0.0828 
    104 H104       30.4978  -47.0043  -52.8602 H         1 UNK         0.0828 
    105 H105       29.7693  -48.6001  -52.7447 H         1 UNK         0.0828 
    106 H106       31.3780  -48.2346  -54.7666 H         1 UNK         0.3005 
    107 H107       31.7855  -48.8661  -58.2684 H         1 UNK         0.1257 
    108 H108       34.0718  -47.6931  -57.6089 H         1 UNK         0.0775 
    109 H109       33.0653  -46.6108  -56.6867 H         1 UNK         0.0775 
    110 H110       34.4777  -44.8749  -58.6766 H         1 UNK         0.0840 
    111 H111       33.2593  -44.1805  -59.7162 H         1 UNK         0.0840 
    112 H112       32.8019  -49.3437  -55.5073 H         1 UNK         0.2987 
    113 H113       32.9562  -52.7899  -56.2507 H         1 UNK         0.0785 
    114 H114       35.4357  -51.0395  -55.7907 H         1 UNK         0.0798 
    115 H115       35.2256  -52.1748  -57.1165 H         1 UNK         0.0798 
    116 H116       35.3136  -52.7705  -55.4684 H         1 UNK         0.0798 
    117 H117       33.8218  -51.4237  -53.9350 H         1 UNK         0.3079 
    118 H118       30.7403  -50.6041  -52.4733 H         1 UNK         0.0794 
    119 H119       32.5254  -52.9878  -51.7629 H         1 UNK         0.0786 
    120 H120       30.7980  -53.0711  -52.0797 H         1 UNK         0.0786 
    121 H121       31.3840  -52.1801  -50.6868 H         1 UNK         0.0786 
    122 H122       33.1883  -50.5902  -51.2126 H         1 UNK         0.3032 
    123 H123       34.2790  -48.7208  -50.7867 H         1 UNK         0.1094 
    124 H124       36.4024  -48.0933  -51.9469 H         1 UNK         0.0794 
    125 H125       35.8400  -49.6578  -52.5098 H         1 UNK         0.0794 
    126 H126       35.6094  -48.2340  -53.5158 H         1 UNK         0.0794 
    127 H127       34.5265  -46.3305  -52.3919 H         1 UNK         0.3016 
@<TRIPOS>BOND
     1    1    2 1    
     2    1   67 1    
     3    1   68 1    
     4    1   69 1    
     5    2    3 2    
     6    2    4 am   BACKBONE|DICT|INTERRES
     7    4    5 1    
     8    4   70 1    
     9    5    6 1    
    10    5   65 1    
    11    5   71 1    
    12    6    7 1    
    13    6   72 1    
    14    6   73 1    
    15    7    8 1    
    16    8    9 1    
    17    8   74 1    
    18    8   75 1    
    19    9   10 ar   
    20    9   14 ar   
    21   10   11 ar   
    22   10   76 1    
    23   11   12 ar   
    24   11   48 1    
    25   12   13 ar   
    26   12   77 1    
    27   13   14 ar   
    28   13   15 1    
    29   14   78 1    
    30   15   16 1    
    31   15   79 1    
    32   15   80 1    
    33   16   17 1    
    34   17   18 1    
    35   17   81 1    
    36   17   82 1    
    37   18   19 1    
    38   18   22 1    
    39   18   83 1    
    40   19   20 am   BACKBONE|DICT|INTERRES
    41   19   21 2    
    42   20   84 1    
    43   20   85 1    
    44   22   23 am   BACKBONE|DICT|INTERRES
    45   22   86 1    
    46   23   24 2    
    47   23   25 1    
    48   25   26 1    
    49   25   27 1    
    50   25   87 1    
    51   26   88 1    
    52   26   89 1    
    53   26   90 1    
    54   27   28 am   BACKBONE|DICT|INTERRES
    55   27   91 1    
    56   28   29 2    
    57   28   30 1    
    58   30   31 1    
    59   30   32 1    
    60   30   92 1    
    61   31   93 1    
    62   31   94 1    
    63   31   95 1    
    64   32   33 am   BACKBONE|DICT|INTERRES
    65   32   96 1    
    66   33   34 2    
    67   33   35 1    
    68   35   36 1    
    69   35   37 1    
    70   35   97 1    
    71   36   98 1    
    72   36   99 1    
    73   36  100 1    
    74   37   38 am   BACKBONE|DICT|INTERRES
    75   37  101 1    
    76   38   39 2    
    77   38   40 1    
    78   40   41 1    
    79   40   42 1    
    80   40  102 1    
    81   41  103 1    
    82   41  104 1    
    83   41  105 1    
    84   42   43 am   BACKBONE|DICT|INTERRES
    85   42  106 1    
    86   43   44 2    
    87   43   45 1    
    88   45   46 1    
    89   45   49 1    
    90   45  107 1    
    91   46   47 1    
    92   46  108 1    
    93   46  109 1    
    94   47   48 1    
    95   48  110 1    
    96   48  111 1    
    97   49   50 am   BACKBONE|DICT|INTERRES
    98   49  112 1    
    99   50   51 2    
   100   50   52 1    
   101   52   53 1    
   102   52   54 1    
   103   52  113 1    
   104   53  114 1    
   105   53  115 1    
   106   53  116 1    
   107   54   55 am   BACKBONE|DICT|INTERRES
   108   54  117 1    
   109   55   56 2    
   110   55   57 1    
   111   57   58 1    
   112   57   59 1    
   113   57  118 1    
   114   58  119 1    
   115   58  120 1    
   116   58  121 1    
   117   59   60 am   BACKBONE|DICT|INTERRES
   118   59  122 1    
   119   60   61 2    
   120   60   62 1    
   121   62   63 1    
   122   62   64 1    
   123   62  123 1    
   124   63  124 1    
   125   63  125 1    
   126   63  126 1    
   127   64   65 am   BACKBONE|DICT|INTERRES
   128   64  127 1    
   129   65   66 2    
@<TRIPOS>SUBSTRUCTURE
     1 UNK         1 GROUP             0       ****    0 ROOT    
