@<TRIPOS>MOLECULE
3R134
127   129    1
SMALL
USER_CHARGES


@<TRIPOS>ATOM
      1 CA         36.3031  -47.6140  -52.0418 C.3       0 UNK        -0.1968 
      2 C          35.1409  -46.7217  -51.6293 C.2       0 UNK         0.4852 
      3 O          34.8696  -46.5946  -50.4350 O.2       0 UNK        -0.5359 
      4 N          34.4729  -46.1122  -52.6178 N.am      1 UNK        -0.4300 
      5 CA         33.3006  -45.2375  -52.5143 C.3       1 UNK         0.0863 
      6 C6         33.4665  -44.0822  -51.4836 C.3       11 UNK        -0.0953 
      7 S7         32.3193  -42.6747  -51.6927 S.3       11 UNK        -0.2369 
      8 C8         33.1728  -41.6288  -52.9198 C.3       11 UNK         0.0226 
      9 C9         33.0171  -42.2076  -54.3162 C.ar      11 UNK        -0.0699 
     10 C10        34.0743  -42.8945  -54.9199 C.ar      11 UNK        -0.0804 
     11 C11        33.8751  -43.5744  -56.1245 C.ar      11 UNK        -0.0871 
     12 C12        32.6393  -43.4830  -56.7727 C.ar      11 UNK        -0.1008 
     13 C13        31.5862  -42.7713  -56.1921 C.ar      11 UNK        -0.0735 
     14 C14        31.7814  -42.1321  -54.9656 C.ar      11 UNK        -0.0945 
     15 C15        30.2195  -42.7517  -56.8554 C.3       11 UNK         0.0169 
     16 S16        29.3035  -44.2691  -56.4502 S.3       11 UNK        -0.2669 
     17 C17        27.6921  -43.9583  -57.2468 C.3       11 UNK        -0.0850 
     18 CA         26.5089  -44.0998  -56.2528 C.3       10 UNK         0.0855 
     19 C          25.1870  -43.5661  -56.8830 C.2       10 UNK         0.5543 
     20 N          24.1444  -44.3701  -57.0548 N.am      10 UNK        -0.7343 
     21 O          25.1054  -42.3872  -57.2187 O.2       10 UNK        -0.5027 
     22 N          26.4132  -45.4628  -55.6964 N.am      10 UNK        -0.4495 
     23 C          25.7867  -45.7670  -54.5522 C.2       10 UNK         0.4903 
     24 O          25.3266  -44.9182  -53.7871 O.2       10 UNK        -0.4860 
     25 CA         25.6522  -47.2653  -54.1957 C.3       9 UNK         0.0227 
     26 CB         24.4974  -47.5297  -53.2077 C.3       9 UNK        -0.1964 
     27 N          25.5434  -48.1795  -55.3431 N.am      9 UNK        -0.4231 
     28 C          24.6621  -48.1304  -56.3528 C.2       9 UNK         0.5014 
     29 O          23.8582  -47.2087  -56.5019 O.2       9 UNK        -0.5270 
     30 CA         24.6780  -49.2921  -57.3730 C.3       8 UNK         0.0284 
     31 CB         24.1851  -48.8433  -58.7616 C.3       8 UNK        -0.1977 
     32 N          25.9805  -49.9480  -57.5355 N.am      8 UNK        -0.4342 
     33 C          26.5619  -50.8091  -56.6935 C.2       8 UNK         0.5039 
     34 O          26.0817  -51.1095  -55.6019 O.2       8 UNK        -0.5547 
     35 CA         27.9323  -51.3836  -57.1008 C.3       7 UNK         0.0281 
     36 CB         27.7877  -52.4784  -58.1766 C.3       7 UNK        -0.1963 
     37 N          28.9183  -50.3553  -57.4816 N.am      7 UNK        -0.4444 
     38 C          28.8840  -49.5373  -58.5435 C.2       7 UNK         0.5104 
     39 O          28.0150  -49.5961  -59.4152 O.2       7 UNK        -0.5100 
     40 CA         29.9367  -48.4248  -58.6441 C.3       6 UNK         0.0396 
     41 CB         29.2386  -47.0564  -58.6462 C.3       6 UNK        -0.1801 
     42 N          30.9316  -48.4220  -57.5655 N.am      6 UNK        -0.4747 
     43 C          32.2145  -48.7676  -57.7441 C.2       6 UNK         0.5012 
     44 O          32.6284  -49.3798  -58.7295 O.2       6 UNK        -0.5003 
     45 CA         33.2155  -48.3002  -56.6739 C.3       5 UNK         0.0782 
     46 C46        33.3016  -46.7530  -56.6556 C.3       11 UNK        -0.0868 
     47 S47        34.8593  -46.1457  -55.9293 S.3       11 UNK        -0.2515 
     48 C48        34.9659  -44.4806  -56.6741 C.3       11 UNK         0.0199 
     49 N          32.8406  -48.8572  -55.3737 N.am      5 UNK        -0.4607 
     50 C          33.4049  -49.9449  -54.8303 C.2       4 UNK         0.5031 
     51 O          34.3753  -50.5250  -55.3179 O.2       4 UNK        -0.5119 
     52 CA         32.7888  -50.5052  -53.5331 C.3       4 UNK         0.0263 
     53 CB         33.6611  -50.1739  -52.3143 C.3       4 UNK        -0.1967 
     54 N          31.4185  -50.0478  -53.2902 N.am      4 UNK        -0.4237 
     55 C          30.3611  -50.4657  -54.0000 C.2       3 UNK         0.4908 
     56 O          30.4361  -51.3043  -54.8966 O.2       3 UNK        -0.5102 
     57 CA         28.9990  -49.8136  -53.7068 C.3       3 UNK         0.0241 
     58 CB         28.1723  -50.6807  -52.7459 C.3       3 UNK        -0.1971 
     59 N          29.0845  -48.4494  -53.1842 N.am      3 UNK        -0.4139 
     60 C          29.6181  -47.4085  -53.8370 C.2       2 UNK         0.5016 
     61 O          30.1445  -47.5018  -54.9495 O.2       2 UNK        -0.5319 
     62 CA         29.5827  -46.0414  -53.1283 C.3       2 UNK         0.0286 
     63 CB         28.8656  -46.0390  -51.7582 C.3       2 UNK        -0.1963 
     64 N          30.9286  -45.4782  -53.0035 N.am      2 UNK        -0.4790 
     65 C          31.9856  -46.0292  -52.3875 C.2       1 UNK         0.5024 
     66 O          31.9474  -47.1063  -51.7874 O.2       1 UNK        -0.4888 
     67 H67        36.3025  -47.8147  -53.1135 H         1 UNK         0.0892 
     68 H68        37.2494  -47.1398  -51.7832 H         1 UNK         0.0892 
     69 H69        36.2486  -48.5695  -51.5209 H         1 UNK         0.0892 
     70 H70        34.7607  -46.2920  -53.5719 H         1 UNK         0.3107 
     71 H71        33.2492  -44.7995  -53.5039 H         1 UNK         0.0773 
     72 H72        34.4838  -43.6905  -51.5269 H         1 UNK         0.0680 
     73 H73        33.3391  -44.4614  -50.4686 H         1 UNK         0.0680 
     74 H74        34.2242  -41.5180  -52.6500 H         1 UNK         0.0650 
     75 H75        32.7401  -40.6277  -52.8939 H         1 UNK         0.0650 
     76 H76        35.0222  -42.9812  -54.4059 H         1 UNK         0.1397 
     77 H77        32.4751  -44.0117  -57.7015 H         1 UNK         0.1363 
     78 H78        30.9582  -41.6147  -54.4915 H         1 UNK         0.1355 
     79 H79        29.6498  -41.8806  -56.5277 H         1 UNK         0.0707 
     80 H80        30.3294  -42.6682  -57.9377 H         1 UNK         0.0707 
     81 H81        27.7062  -42.9577  -57.6835 H         1 UNK         0.1034 
     82 H82        27.5722  -44.6449  -58.0859 H         1 UNK         0.1034 
     83 H83        26.7176  -43.4260  -55.4192 H         1 UNK         0.0482 
     84 H84        23.3016  -43.9969  -57.4607 H         1 UNK         0.3460 
     85 H85        24.1756  -45.3481  -56.7799 H         1 UNK         0.3460 
     86 H86        26.7587  -46.2111  -56.2767 H         1 UNK         0.2989 
     87 H87        26.5759  -47.5337  -53.6876 H         1 UNK         0.0559 
     88 H88        23.5340  -47.2435  -53.6315 H         1 UNK         0.0848 
     89 H89        24.6285  -46.9645  -52.2840 H         1 UNK         0.0848 
     90 H90        24.4429  -48.5831  -52.9329 H         1 UNK         0.0848 
     91 H91        26.1052  -49.0214  -55.2939 H         1 UNK         0.3144 
     92 H92        23.9751  -50.0381  -56.9968 H         1 UNK         0.0727 
     93 H93        24.8275  -48.0696  -59.1842 H         1 UNK         0.0790 
     94 H94        23.1734  -48.4381  -58.7118 H         1 UNK         0.0790 
     95 H95        24.1591  -49.6777  -59.4628 H         1 UNK         0.0790 
     96 H96        26.4985  -49.7345  -58.3865 H         1 UNK         0.3215 
     97 H97        28.3327  -51.8734  -56.2132 H         1 UNK         0.0863 
     98 H98        28.7531  -52.9215  -58.4206 H         1 UNK         0.0808 
     99 H99        27.3495  -52.1003  -59.1003 H         1 UNK         0.0808 
    100 H100       27.1427  -53.2838  -57.8227 H         1 UNK         0.0808 
    101 H101       29.6855  -50.2370  -56.8316 H         1 UNK         0.3118 
    102 H102       30.4262  -48.5443  -59.6128 H         1 UNK         0.0546 
    103 H103       28.5318  -46.9696  -59.4725 H         1 UNK         0.0828 
    104 H104       29.9576  -46.2440  -58.7531 H         1 UNK         0.0828 
    105 H105       28.6837  -46.8962  -57.7216 H         1 UNK         0.0828 
    106 H106       30.6581  -47.9636  -56.6970 H         1 UNK         0.3005 
    107 H107       34.1920  -48.6838  -56.9799 H         1 UNK         0.1257 
    108 H108       32.4594  -46.3191  -56.1123 H         1 UNK         0.0775 
    109 H109       33.2453  -46.3562  -57.6715 H         1 UNK         0.0775 
    110 H110       35.9471  -44.0556  -56.4568 H         1 UNK         0.0840 
    111 H111       34.8991  -44.5521  -57.7609 H         1 UNK         0.0840 
    112 H112       32.0196  -48.4553  -54.9368 H         1 UNK         0.2987 
    113 H113       32.7686  -51.5922  -53.6388 H         1 UNK         0.0785 
    114 H114       34.6945  -50.4852  -52.4726 H         1 UNK         0.0798 
    115 H115       33.3026  -50.6846  -51.4205 H         1 UNK         0.0798 
    116 H116       33.6657  -49.1059  -52.1073 H         1 UNK         0.0798 
    117 H117       31.2919  -49.3263  -52.5918 H         1 UNK         0.3079 
    118 H118       28.4628  -49.7542  -54.6538 H         1 UNK         0.0794 
    119 H119       28.6379  -50.7534  -51.7622 H         1 UNK         0.0786 
    120 H120       28.0642  -51.6951  -53.1332 H         1 UNK         0.0786 
    121 H121       27.1662  -50.2808  -52.6163 H         1 UNK         0.0786 
    122 H122       28.7172  -48.2942  -52.2563 H         1 UNK         0.3032 
    123 H123       29.0245  -45.3769  -53.7882 H         1 UNK         0.1094 
    124 H124       28.8485  -45.0344  -51.3350 H         1 UNK         0.0794 
    125 H125       27.8260  -46.3560  -51.8495 H         1 UNK         0.0794 
    126 H126       29.3541  -46.6880  -51.0304 H         1 UNK         0.0794 
    127 H127       31.0735  -44.6058  -53.4947 H         1 UNK         0.3016 
@<TRIPOS>BOND
     1    1    2 1    
     2    1   67 1    
     3    1   68 1    
     4    1   69 1    
     5    2    3 2    
     6    2    4 am   BACKBONE|DICT|INTERRES
     7    4    5 1    
     8    4   70 1    
     9    5    6 1    
    10    5   65 1    
    11    5   71 1    
    12    6    7 1    
    13    6   72 1    
    14    6   73 1    
    15    7    8 1    
    16    8    9 1    
    17    8   74 1    
    18    8   75 1    
    19    9   10 ar   
    20    9   14 ar   
    21   10   11 ar   
    22   10   76 1    
    23   11   12 ar   
    24   11   48 1    
    25   12   13 ar   
    26   12   77 1    
    27   13   14 ar   
    28   13   15 1    
    29   14   78 1    
    30   15   16 1    
    31   15   79 1    
    32   15   80 1    
    33   16   17 1    
    34   17   18 1    
    35   17   81 1    
    36   17   82 1    
    37   18   19 1    
    38   18   22 1    
    39   18   83 1    
    40   19   20 am   BACKBONE|DICT|INTERRES
    41   19   21 2    
    42   20   84 1    
    43   20   85 1    
    44   22   23 am   BACKBONE|DICT|INTERRES
    45   22   86 1    
    46   23   24 2    
    47   23   25 1    
    48   25   26 1    
    49   25   27 1    
    50   25   87 1    
    51   26   88 1    
    52   26   89 1    
    53   26   90 1    
    54   27   28 am   BACKBONE|DICT|INTERRES
    55   27   91 1    
    56   28   29 2    
    57   28   30 1    
    58   30   31 1    
    59   30   32 1    
    60   30   92 1    
    61   31   93 1    
    62   31   94 1    
    63   31   95 1    
    64   32   33 am   BACKBONE|DICT|INTERRES
    65   32   96 1    
    66   33   34 2    
    67   33   35 1    
    68   35   36 1    
    69   35   37 1    
    70   35   97 1    
    71   36   98 1    
    72   36   99 1    
    73   36  100 1    
    74   37   38 am   BACKBONE|DICT|INTERRES
    75   37  101 1    
    76   38   39 2    
    77   38   40 1    
    78   40   41 1    
    79   40   42 1    
    80   40  102 1    
    81   41  103 1    
    82   41  104 1    
    83   41  105 1    
    84   42   43 am   BACKBONE|DICT|INTERRES
    85   42  106 1    
    86   43   44 2    
    87   43   45 1    
    88   45   46 1    
    89   45   49 1    
    90   45  107 1    
    91   46   47 1    
    92   46  108 1    
    93   46  109 1    
    94   47   48 1    
    95   48  110 1    
    96   48  111 1    
    97   49   50 am   BACKBONE|DICT|INTERRES
    98   49  112 1    
    99   50   51 2    
   100   50   52 1    
   101   52   53 1    
   102   52   54 1    
   103   52  113 1    
   104   53  114 1    
   105   53  115 1    
   106   53  116 1    
   107   54   55 am   BACKBONE|DICT|INTERRES
   108   54  117 1    
   109   55   56 2    
   110   55   57 1    
   111   57   58 1    
   112   57   59 1    
   113   57  118 1    
   114   58  119 1    
   115   58  120 1    
   116   58  121 1    
   117   59   60 am   BACKBONE|DICT|INTERRES
   118   59  122 1    
   119   60   61 2    
   120   60   62 1    
   121   62   63 1    
   122   62   64 1    
   123   62  123 1    
   124   63  124 1    
   125   63  125 1    
   126   63  126 1    
   127   64   65 am   BACKBONE|DICT|INTERRES
   128   64  127 1    
   129   65   66 2    
@<TRIPOS>SUBSTRUCTURE
     1 UNK         1 GROUP             0       ****    0 ROOT    
