@<TRIPOS>MOLECULE
3R134
127   129    1
SMALL
USER_CHARGES


@<TRIPOS>ATOM
      1 CA         36.6515  -45.6824  -56.1851 C.3       0 UNK        -0.1968 
      2 C          36.2151  -45.3822  -54.7587 C.2       0 UNK         0.4852 
      3 O          37.0530  -45.3625  -53.8567 O.2       0 UNK        -0.5359 
      4 N          34.9091  -45.1568  -54.5534 N.am      1 UNK        -0.4300 
      5 CA         34.2710  -44.8443  -53.2646 C.3       1 UNK         0.0863 
      6 C6         34.7767  -43.5008  -52.6638 C.3       11 UNK        -0.0953 
      7 S7         33.4896  -42.5494  -51.7885 S.3       11 UNK        -0.2369 
      8 C8         32.6982  -41.6276  -53.1492 C.3       11 UNK         0.0226 
      9 C9         31.6578  -42.4791  -53.8619 C.ar      11 UNK        -0.0699 
     10 C10        31.9207  -43.0302  -55.1211 C.ar      11 UNK        -0.0804 
     11 C11        30.9838  -43.8677  -55.7366 C.ar      11 UNK        -0.0871 
     12 C12        29.7665  -44.1232  -55.0981 C.ar      11 UNK        -0.1008 
     13 C13        29.4770  -43.5438  -53.8598 C.ar      11 UNK        -0.0735 
     14 C14        30.4292  -42.7291  -53.2439 C.ar      11 UNK        -0.0945 
     15 C15        28.1421  -43.8073  -53.1791 C.3       11 UNK         0.0169 
     16 S16        26.9349  -42.4697  -53.4592 S.3       11 UNK        -0.2669 
     17 C17        26.6845  -42.5272  -55.2684 C.3       11 UNK        -0.0850 
     18 CA         25.7832  -43.7049  -55.7381 C.3       10 UNK         0.0855 
     19 C          24.2700  -43.3330  -55.6896 C.2       10 UNK         0.5543 
     20 N          23.5822  -43.2120  -56.8189 N.am      10 UNK        -0.7343 
     21 O          23.7085  -43.1597  -54.6111 O.2       10 UNK        -0.5027 
     22 N          26.2519  -44.2408  -57.0289 N.am      10 UNK        -0.4495 
     23 C          25.9317  -45.4459  -57.5199 C.2       10 UNK         0.4903 
     24 O          25.2045  -46.2471  -56.9346 O.2       10 UNK        -0.4860 
     25 CA         26.4857  -45.8202  -58.9039 C.3       9 UNK         0.0227 
     26 CB         27.5303  -44.8332  -59.4680 C.3       9 UNK        -0.1964 
     27 N          27.0683  -47.1587  -58.8391 N.am      9 UNK        -0.4231 
     28 C          26.9329  -48.1099  -59.7696 C.2       9 UNK         0.5014 
     29 O          26.2704  -47.9752  -60.8001 O.2       9 UNK        -0.5270 
     30 CA         27.6837  -49.4318  -59.5338 C.3       8 UNK         0.0284 
     31 CB         29.1469  -49.3008  -59.9881 C.3       8 UNK        -0.1977 
     32 N          27.6438  -49.9004  -58.1459 N.am      8 UNK        -0.4342 
     33 C          26.5515  -50.3799  -57.5327 C.2       8 UNK         0.5039 
     34 O          25.4462  -50.4664  -58.0693 O.2       8 UNK        -0.5547 
     35 CA         26.7206  -50.8610  -56.0811 C.3       7 UNK         0.0281 
     36 CB         27.3691  -52.2544  -56.0342 C.3       7 UNK        -0.1963 
     37 N          27.5100  -49.9194  -55.2879 N.am      7 UNK        -0.4444 
     38 C          27.0341  -48.7701  -54.7918 C.2       7 UNK         0.5104 
     39 O          25.8432  -48.4626  -54.8121 O.2       7 UNK        -0.5100 
     40 CA         28.0472  -47.7892  -54.1721 C.3       6 UNK         0.0396 
     41 CB         28.0714  -47.9129  -52.6414 C.3       6 UNK        -0.1801 
     42 N          29.4093  -47.9335  -54.6918 N.am      6 UNK        -0.4747 
     43 C          29.7782  -47.6575  -55.9512 C.2       6 UNK         0.5012 
     44 O          29.0126  -47.2235  -56.8107 O.2       6 UNK        -0.5003 
     45 CA         31.2388  -47.9759  -56.3160 C.3       5 UNK         0.0782 
     46 C46        32.2020  -46.8695  -55.8089 C.3       11 UNK        -0.0868 
     47 S47        32.6716  -45.6538  -57.0831 S.3       11 UNK        -0.2515 
     48 C48        31.2707  -44.4864  -57.0984 C.3       11 UNK         0.0199 
     49 N          31.6116  -49.2971  -55.8020 N.am      5 UNK        -0.4607 
     50 C          31.1191  -50.4605  -56.2480 C.2       4 UNK         0.5031 
     51 O          30.3252  -50.5471  -57.1833 O.2       4 UNK        -0.5119 
     52 CA         31.5449  -51.7348  -55.4967 C.3       4 UNK         0.0263 
     53 CB         32.8392  -52.3041  -56.0978 C.3       4 UNK        -0.1967 
     54 N          31.7276  -51.5159  -54.0585 N.am      4 UNK        -0.4237 
     55 C          30.7394  -51.1986  -53.2085 C.2       3 UNK         0.4908 
     56 O          29.5553  -51.1395  -53.5352 O.2       3 UNK        -0.5102 
     57 CA         31.1413  -50.8296  -51.7672 C.3       3 UNK         0.0241 
     58 CB         31.1314  -52.0778  -50.8708 C.3       3 UNK        -0.1971 
     59 N          32.4436  -50.1567  -51.6606 N.am      3 UNK        -0.4139 
     60 C          32.7683  -49.0148  -52.2835 C.2       2 UNK         0.5016 
     61 O          31.9889  -48.3996  -53.0175 O.2       2 UNK        -0.5319 
     62 CA         34.2174  -48.5247  -52.1119 C.3       2 UNK         0.0286 
     63 CB         35.2123  -49.5423  -52.7002 C.3       2 UNK        -0.1963 
     64 N          34.4069  -47.2534  -52.8093 N.am      2 UNK        -0.4790 
     65 C          34.2598  -46.0348  -52.2735 C.2       1 UNK         0.5024 
     66 O          34.0873  -45.8433  -51.0686 O.2       1 UNK        -0.4888 
     67 H67        35.8160  -45.6548  -56.8843 H         1 UNK         0.0892 
     68 H68        37.3898  -44.9510  -56.5125 H         1 UNK         0.0892 
     69 H69        37.1051  -46.6717  -56.2382 H         1 UNK         0.0892 
     70 H70        34.2796  -45.1859  -55.3461 H         1 UNK         0.3107 
     71 H71        33.2186  -44.7246  -53.5136 H         1 UNK         0.0773 
     72 H72        35.1741  -42.8576  -53.4504 H         1 UNK         0.0680 
     73 H73        35.6137  -43.6702  -51.9841 H         1 UNK         0.0680 
     74 H74        33.4533  -41.2611  -53.8461 H         1 UNK         0.0650 
     75 H75        32.2122  -40.7430  -52.7351 H         1 UNK         0.0650 
     76 H76        32.8650  -42.8321  -55.6098 H         1 UNK         0.1397 
     77 H77        29.0323  -44.7611  -55.5713 H         1 UNK         0.1363 
     78 H78        30.2178  -42.2950  -52.2760 H         1 UNK         0.1355 
     79 H79        28.2982  -43.9179  -52.1049 H         1 UNK         0.0707 
     80 H80        27.7178  -44.7510  -53.5160 H         1 UNK         0.0707 
     81 H81        26.2723  -41.5686  -55.5899 H         1 UNK         0.1034 
     82 H82        27.6653  -42.5695  -55.7404 H         1 UNK         0.1034 
     83 H83        25.9014  -44.5232  -55.0255 H         1 UNK         0.0482 
     84 H84        22.6030  -42.9767  -56.7783 H         1 UNK         0.3460 
     85 H85        24.0301  -43.3578  -57.7090 H         1 UNK         0.3460 
     86 H86        26.8265  -43.6288  -57.5887 H         1 UNK         0.2989 
     87 H87        25.6260  -45.8261  -59.5768 H         1 UNK         0.0559 
     88 H88        27.1086  -43.8368  -59.6052 H         1 UNK         0.0848 
     89 H89        27.8855  -45.1592  -60.4459 H         1 UNK         0.0848 
     90 H90        28.4004  -44.7477  -58.8169 H         1 UNK         0.0848 
     91 H91        27.6452  -47.3465  -58.0197 H         1 UNK         0.3144 
     92 H92        27.2075  -50.1941  -60.1542 H         1 UNK         0.0727 
     93 H93        29.6695  -50.2553  -59.9222 H         1 UNK         0.0790 
     94 H94        29.6938  -48.5774  -59.3822 H         1 UNK         0.0790 
     95 H95        29.2066  -48.9701  -61.0259 H         1 UNK         0.0790 
     96 H96        28.5330  -49.9320  -57.6547 H         1 UNK         0.3215 
     97 H97        25.7259  -50.9415  -55.6367 H         1 UNK         0.0863 
     98 H98        27.4663  -52.6115  -55.0087 H         1 UNK         0.0808 
     99 H99        28.3615  -52.2591  -56.4844 H         1 UNK         0.0808 
    100 H100       26.7636  -52.9821  -56.5759 H         1 UNK         0.0808 
    101 H101       28.4798  -50.1528  -55.1127 H         1 UNK         0.3118 
    102 H102       27.7044  -46.7873  -54.4315 H         1 UNK         0.0546 
    103 H103       28.3970  -48.9035  -52.3235 H         1 UNK         0.0828 
    104 H104       27.0785  -47.7462  -52.2218 H         1 UNK         0.0828 
    105 H105       28.7408  -47.1780  -52.1936 H         1 UNK         0.0828 
    106 H106       30.1194  -48.2657  -54.0470 H         1 UNK         0.3005 
    107 H107       31.2982  -48.0307  -57.4056 H         1 UNK         0.1257 
    108 H108       33.1408  -47.3260  -55.4946 H         1 UNK         0.0775 
    109 H109       31.8283  -46.3621  -54.9170 H         1 UNK         0.0775 
    110 H110       31.4880  -43.6887  -57.8100 H         1 UNK         0.0840 
    111 H111       30.3912  -45.0011  -57.4853 H         1 UNK         0.0840 
    112 H112       32.1716  -49.2984  -54.9602 H         1 UNK         0.2987 
    113 H113       30.7526  -52.4752  -55.6265 H         1 UNK         0.0785 
    114 H114       32.7209  -52.4955  -57.1654 H         1 UNK         0.0798 
    115 H115       33.1116  -53.2503  -55.6299 H         1 UNK         0.0798 
    116 H116       33.6782  -51.6167  -55.9812 H         1 UNK         0.0798 
    117 H117       32.6710  -51.5618  -53.7029 H         1 UNK         0.3079 
    118 H118       30.3874  -50.1351  -51.3913 H         1 UNK         0.0794 
    119 H119       31.3090  -51.8188  -49.8268 H         1 UNK         0.0786 
    120 H120       31.8912  -52.7999  -51.1728 H         1 UNK         0.0786 
    121 H121       30.1653  -52.5829  -50.9164 H         1 UNK         0.0786 
    122 H122       33.1350  -50.6054  -51.0766 H         1 UNK         0.3032 
    123 H123       34.4161  -48.4004  -51.0449 H         1 UNK         0.1094 
    124 H124       35.0092  -49.7492  -53.7519 H         1 UNK         0.0794 
    125 H125       36.2371  -49.1768  -52.6266 H         1 UNK         0.0794 
    126 H126       35.1775  -50.4925  -52.1664 H         1 UNK         0.0794 
    127 H127       34.5266  -47.3093  -53.8085 H         1 UNK         0.3016 
@<TRIPOS>BOND
     1    1    2 1    
     2    1   67 1    
     3    1   68 1    
     4    1   69 1    
     5    2    3 2    
     6    2    4 am   BACKBONE|DICT|INTERRES
     7    4    5 1    
     8    4   70 1    
     9    5    6 1    
    10    5   65 1    
    11    5   71 1    
    12    6    7 1    
    13    6   72 1    
    14    6   73 1    
    15    7    8 1    
    16    8    9 1    
    17    8   74 1    
    18    8   75 1    
    19    9   10 ar   
    20    9   14 ar   
    21   10   11 ar   
    22   10   76 1    
    23   11   12 ar   
    24   11   48 1    
    25   12   13 ar   
    26   12   77 1    
    27   13   14 ar   
    28   13   15 1    
    29   14   78 1    
    30   15   16 1    
    31   15   79 1    
    32   15   80 1    
    33   16   17 1    
    34   17   18 1    
    35   17   81 1    
    36   17   82 1    
    37   18   19 1    
    38   18   22 1    
    39   18   83 1    
    40   19   20 am   BACKBONE|DICT|INTERRES
    41   19   21 2    
    42   20   84 1    
    43   20   85 1    
    44   22   23 am   BACKBONE|DICT|INTERRES
    45   22   86 1    
    46   23   24 2    
    47   23   25 1    
    48   25   26 1    
    49   25   27 1    
    50   25   87 1    
    51   26   88 1    
    52   26   89 1    
    53   26   90 1    
    54   27   28 am   BACKBONE|DICT|INTERRES
    55   27   91 1    
    56   28   29 2    
    57   28   30 1    
    58   30   31 1    
    59   30   32 1    
    60   30   92 1    
    61   31   93 1    
    62   31   94 1    
    63   31   95 1    
    64   32   33 am   BACKBONE|DICT|INTERRES
    65   32   96 1    
    66   33   34 2    
    67   33   35 1    
    68   35   36 1    
    69   35   37 1    
    70   35   97 1    
    71   36   98 1    
    72   36   99 1    
    73   36  100 1    
    74   37   38 am   BACKBONE|DICT|INTERRES
    75   37  101 1    
    76   38   39 2    
    77   38   40 1    
    78   40   41 1    
    79   40   42 1    
    80   40  102 1    
    81   41  103 1    
    82   41  104 1    
    83   41  105 1    
    84   42   43 am   BACKBONE|DICT|INTERRES
    85   42  106 1    
    86   43   44 2    
    87   43   45 1    
    88   45   46 1    
    89   45   49 1    
    90   45  107 1    
    91   46   47 1    
    92   46  108 1    
    93   46  109 1    
    94   47   48 1    
    95   48  110 1    
    96   48  111 1    
    97   49   50 am   BACKBONE|DICT|INTERRES
    98   49  112 1    
    99   50   51 2    
   100   50   52 1    
   101   52   53 1    
   102   52   54 1    
   103   52  113 1    
   104   53  114 1    
   105   53  115 1    
   106   53  116 1    
   107   54   55 am   BACKBONE|DICT|INTERRES
   108   54  117 1    
   109   55   56 2    
   110   55   57 1    
   111   57   58 1    
   112   57   59 1    
   113   57  118 1    
   114   58  119 1    
   115   58  120 1    
   116   58  121 1    
   117   59   60 am   BACKBONE|DICT|INTERRES
   118   59  122 1    
   119   60   61 2    
   120   60   62 1    
   121   62   63 1    
   122   62   64 1    
   123   62  123 1    
   124   63  124 1    
   125   63  125 1    
   126   63  126 1    
   127   64   65 am   BACKBONE|DICT|INTERRES
   128   64  127 1    
   129   65   66 2    
@<TRIPOS>SUBSTRUCTURE
     1 UNK         1 GROUP             0       ****    0 ROOT    
