@<TRIPOS>MOLECULE
3R134
127   129    1
SMALL
USER_CHARGES


@<TRIPOS>ATOM
      1 CA         33.7937  -46.2487  -49.1862 C.3       0 UNK        -0.1968 
      2 C          34.4971  -45.8825  -50.4851 C.2       0 UNK         0.4852 
      3 O          35.5950  -45.3241  -50.4502 O.2       0 UNK        -0.5359 
      4 N          33.8664  -46.1823  -51.6270 N.am      1 UNK        -0.4300 
      5 CA         34.4045  -45.9451  -52.9696 C.3       1 UNK         0.0863 
      6 C6         33.2604  -45.8429  -54.0194 C.3       11 UNK        -0.0953 
      7 S7         33.5481  -44.5321  -55.2598 S.3       11 UNK        -0.2369 
      8 C8         33.2106  -42.9951  -54.3273 C.3       11 UNK         0.0226 
      9 C9         31.7895  -42.9604  -53.7882 C.ar      11 UNK        -0.0699 
     10 C10        31.5206  -43.4661  -52.5158 C.ar      11 UNK        -0.0804 
     11 C11        30.2063  -43.5980  -52.0688 C.ar      11 UNK        -0.0871 
     12 C12        29.1574  -43.1179  -52.8586 C.ar      11 UNK        -0.1008 
     13 C13        29.4192  -42.5607  -54.1148 C.ar      11 UNK        -0.0735 
     14 C14        30.7381  -42.4862  -54.5764 C.ar      11 UNK        -0.0945 
     15 C15        28.2709  -42.0843  -54.9914 C.3       11 UNK         0.0169 
     16 S16        27.4201  -43.4822  -55.7897 S.3       11 UNK        -0.2669 
     17 C17        28.7255  -44.1332  -56.8919 C.3       11 UNK        -0.0850 
     18 CA         28.1845  -44.5428  -58.2850 C.3       10 UNK         0.0855 
     19 C          29.3477  -44.9136  -59.2540 C.2       10 UNK         0.5543 
     20 N          29.3795  -46.0961  -59.8580 N.am      10 UNK        -0.7343 
     21 O          30.2416  -44.0997  -59.4714 O.2       10 UNK        -0.5027 
     22 N          27.1343  -45.5682  -58.1811 N.am      10 UNK        -0.4495 
     23 C          26.1687  -45.7542  -59.0910 C.2       10 UNK         0.4903 
     24 O          26.0032  -45.0223  -60.0687 O.2       10 UNK        -0.4860 
     25 CA         25.2442  -46.9716  -58.8799 C.3       9 UNK         0.0227 
     26 CB         24.4723  -47.3659  -60.1567 C.3       9 UNK        -0.1964 
     27 N          25.9381  -48.1383  -58.3191 N.am      9 UNK        -0.4231 
     28 C          27.0171  -48.7625  -58.8215 C.2       9 UNK         0.5014 
     29 O          27.5539  -48.4380  -59.8815 O.2       9 UNK        -0.5270 
     30 CA         27.6417  -49.9032  -57.9949 C.3       8 UNK         0.0284 
     31 CB         29.1548  -49.6853  -57.8323 C.3       8 UNK        -0.1977 
     32 N          27.0386  -50.0098  -56.6655 N.am      8 UNK        -0.4342 
     33 C          26.0958  -50.8955  -56.3148 C.2       8 UNK         0.5039 
     34 O          25.7109  -51.8121  -57.0411 O.2       8 UNK        -0.5547 
     35 CA         25.4340  -50.7034  -54.9367 C.3       7 UNK         0.0281 
     36 CB         26.0242  -51.6789  -53.9060 C.3       7 UNK        -0.1963 
     37 N          25.5318  -49.3240  -54.4413 N.am      7 UNK        -0.4444 
     38 C          24.8805  -48.2870  -54.9924 C.2       7 UNK         0.5104 
     39 O          24.1045  -48.4059  -55.9397 O.2       7 UNK        -0.5100 
     40 CA         25.1779  -46.8751  -54.4577 C.3       6 UNK         0.0396 
     41 CB         24.0849  -46.4324  -53.4733 C.3       6 UNK        -0.1801 
     42 N          26.4879  -46.7390  -53.8185 N.am      6 UNK        -0.4747 
     43 C          27.6725  -46.8859  -54.4300 C.2       6 UNK         0.5012 
     44 O          27.7800  -47.1785  -55.6258 O.2       6 UNK        -0.5003 
     45 CA         28.9489  -46.7126  -53.5667 C.3       5 UNK         0.0782 
     46 C46        28.6486  -46.5227  -52.0457 C.3       11 UNK        -0.0868 
     47 S47        30.1237  -46.1446  -51.0388 S.3       11 UNK        -0.2515 
     48 C48        29.9360  -44.3472  -50.7758 C.3       11 UNK         0.0199 
     49 N          29.9048  -47.7983  -53.8391 N.am      5 UNK        -0.4607 
     50 C          29.6660  -49.1075  -53.6705 C.2       4 UNK         0.5031 
     51 O          28.5964  -49.5485  -53.2481 O.2       4 UNK        -0.5119 
     52 CA         30.7920  -50.0856  -54.0481 C.3       4 UNK         0.0263 
     53 CB         30.2658  -51.5066  -54.3427 C.3       4 UNK        -0.1967 
     54 N          31.5943  -49.5961  -55.1768 N.am      4 UNK        -0.4237 
     55 C          32.8929  -49.8767  -55.3611 C.2       3 UNK         0.4908 
     56 O          33.5439  -50.5762  -54.5841 O.2       3 UNK        -0.5102 
     57 CA         33.5939  -49.2916  -56.6076 C.3       3 UNK         0.0241 
     58 CB         32.6722  -48.4663  -57.5294 C.3       3 UNK        -0.1971 
     59 N          34.7099  -48.4460  -56.1897 N.am      3 UNK        -0.4139 
     60 C          35.9554  -48.8538  -55.9040 C.2       2 UNK         0.5016 
     61 O          36.3867  -49.9840  -56.1360 O.2       2 UNK        -0.5319 
     62 CA         36.8742  -47.8147  -55.2267 C.3       2 UNK         0.0286 
     63 CB         37.7770  -47.1299  -56.2655 C.3       2 UNK        -0.1963 
     64 N          36.1150  -46.7921  -54.4948 N.am      2 UNK        -0.4790 
     65 C          35.4215  -47.0322  -53.3724 C.2       1 UNK         0.5024 
     66 O          35.5036  -48.0830  -52.7320 O.2       1 UNK        -0.4888 
     67 H67        34.4125  -46.9307  -48.6039 H         1 UNK         0.0892 
     68 H68        33.6170  -45.3539  -48.5902 H         1 UNK         0.0892 
     69 H69        32.8326  -46.7312  -49.3641 H         1 UNK         0.0892 
     70 H70        32.9858  -46.6750  -51.5859 H         1 UNK         0.3107 
     71 H71        34.9480  -44.9986  -52.9352 H         1 UNK         0.0773 
     72 H72        33.1103  -46.7841  -54.5494 H         1 UNK         0.0680 
     73 H73        32.2960  -45.6708  -53.5475 H         1 UNK         0.0680 
     74 H74        33.3773  -42.1410  -54.9852 H         1 UNK         0.0650 
     75 H75        33.9286  -42.8945  -53.5123 H         1 UNK         0.0650 
     76 H76        32.3304  -43.8446  -51.9079 H         1 UNK         0.1397 
     77 H77        28.1350  -43.2159  -52.5201 H         1 UNK         0.1363 
     78 H78        30.9460  -42.0901  -55.5608 H         1 UNK         0.1355 
     79 H79        28.6239  -41.3867  -55.7526 H         1 UNK         0.0707 
     80 H80        27.5523  -41.5341  -54.3823 H         1 UNK         0.0707 
     81 H81        29.4944  -43.3686  -57.0093 H         1 UNK         0.1034 
     82 H82        29.2148  -44.9772  -56.4041 H         1 UNK         0.1034 
     83 H83        27.7289  -43.6495  -58.7166 H         1 UNK         0.0482 
     84 H84        28.6378  -46.7768  -59.7346 H         1 UNK         0.3460 
     85 H85        30.1415  -46.3020  -60.4832 H         1 UNK         0.3460 
     86 H86        27.2186  -46.2095  -57.4004 H         1 UNK         0.2989 
     87 H87        24.5109  -46.6655  -58.1326 H         1 UNK         0.0559 
     88 H88        23.8518  -46.5418  -60.5109 H         1 UNK         0.0848 
     89 H89        23.8096  -48.2117  -59.9740 H         1 UNK         0.0848 
     90 H90        25.1472  -47.6375  -60.9691 H         1 UNK         0.0848 
     91 H91        25.5474  -48.4839  -57.4504 H         1 UNK         0.3144 
     92 H92        27.4896  -50.8271  -58.5563 H         1 UNK         0.0727 
     93 H93        29.3706  -48.7562  -57.3037 H         1 UNK         0.0790 
     94 H94        29.6481  -49.6315  -58.8038 H         1 UNK         0.0790 
     95 H95        29.6170  -50.5078  -57.2884 H         1 UNK         0.0790 
     96 H96        27.2794  -49.2735  -56.0111 H         1 UNK         0.3215 
     97 H97        24.3737  -50.9401  -55.0512 H         1 UNK         0.0863 
     98 H98        25.5679  -51.5491  -52.9246 H         1 UNK         0.0808 
     99 H99        27.1010  -51.5555  -53.7971 H         1 UNK         0.0808 
    100 H100       25.8502  -52.7120  -54.2095 H         1 UNK         0.0808 
    101 H101       26.1919  -49.1501  -53.6939 H         1 UNK         0.3118 
    102 H102       25.1601  -46.1952  -55.3125 H         1 UNK         0.0546 
    103 H103       24.0675  -47.0571  -52.5794 H         1 UNK         0.0828 
    104 H104       23.0974  -46.4947  -53.9330 H         1 UNK         0.0828 
    105 H105       24.2277  -45.3981  -53.1599 H         1 UNK         0.0828 
    106 H106       26.4799  -46.5200  -52.8331 H         1 UNK         0.3005 
    107 H107       29.4148  -45.7952  -53.9297 H         1 UNK         0.1257 
    108 H108       27.9295  -45.7178  -51.8878 H         1 UNK         0.0775 
    109 H109       28.1906  -47.4217  -51.6292 H         1 UNK         0.0775 
    110 H110       28.9406  -44.1238  -50.3888 H         1 UNK         0.0840 
    111 H111       30.6424  -44.0233  -50.0099 H         1 UNK         0.0840 
    112 H112       30.8063  -47.5110  -54.1850 H         1 UNK         0.2987 
    113 H113       31.4307  -50.1415  -53.1639 H         1 UNK         0.0785 
    114 H114       29.7600  -51.9244  -53.4712 H         1 UNK         0.0798 
    115 H115       31.0759  -52.1897  -54.5979 H         1 UNK         0.0798 
    116 H116       29.5500  -51.5106  -55.1645 H         1 UNK         0.0798 
    117 H117       31.1128  -49.0296  -55.8600 H         1 UNK         0.3079 
    118 H118       33.9795  -50.1347  -57.1847 H         1 UNK         0.0794 
    119 H119       33.2291  -48.0700  -58.3790 H         1 UNK         0.0786 
    120 H120       32.2157  -47.6175  -57.0181 H         1 UNK         0.0786 
    121 H121       31.8785  -49.0857  -57.9447 H         1 UNK         0.0786 
    122 H122       34.4841  -47.4871  -55.9744 H         1 UNK         0.3032 
    123 H123       37.5078  -48.3513  -54.5164 H         1 UNK         0.1094 
    124 H124       37.1973  -46.5713  -57.0015 H         1 UNK         0.0794 
    125 H125       38.4746  -46.4392  -55.7913 H         1 UNK         0.0794 
    126 H126       38.3715  -47.8655  -56.8093 H         1 UNK         0.0794 
    127 H127       36.0033  -45.8963  -54.9509 H         1 UNK         0.3016 
@<TRIPOS>BOND
     1    1    2 1    
     2    1   67 1    
     3    1   68 1    
     4    1   69 1    
     5    2    3 2    
     6    2    4 am   BACKBONE|DICT|INTERRES
     7    4    5 1    
     8    4   70 1    
     9    5    6 1    
    10    5   65 1    
    11    5   71 1    
    12    6    7 1    
    13    6   72 1    
    14    6   73 1    
    15    7    8 1    
    16    8    9 1    
    17    8   74 1    
    18    8   75 1    
    19    9   10 ar   
    20    9   14 ar   
    21   10   11 ar   
    22   10   76 1    
    23   11   12 ar   
    24   11   48 1    
    25   12   13 ar   
    26   12   77 1    
    27   13   14 ar   
    28   13   15 1    
    29   14   78 1    
    30   15   16 1    
    31   15   79 1    
    32   15   80 1    
    33   16   17 1    
    34   17   18 1    
    35   17   81 1    
    36   17   82 1    
    37   18   19 1    
    38   18   22 1    
    39   18   83 1    
    40   19   20 am   BACKBONE|DICT|INTERRES
    41   19   21 2    
    42   20   84 1    
    43   20   85 1    
    44   22   23 am   BACKBONE|DICT|INTERRES
    45   22   86 1    
    46   23   24 2    
    47   23   25 1    
    48   25   26 1    
    49   25   27 1    
    50   25   87 1    
    51   26   88 1    
    52   26   89 1    
    53   26   90 1    
    54   27   28 am   BACKBONE|DICT|INTERRES
    55   27   91 1    
    56   28   29 2    
    57   28   30 1    
    58   30   31 1    
    59   30   32 1    
    60   30   92 1    
    61   31   93 1    
    62   31   94 1    
    63   31   95 1    
    64   32   33 am   BACKBONE|DICT|INTERRES
    65   32   96 1    
    66   33   34 2    
    67   33   35 1    
    68   35   36 1    
    69   35   37 1    
    70   35   97 1    
    71   36   98 1    
    72   36   99 1    
    73   36  100 1    
    74   37   38 am   BACKBONE|DICT|INTERRES
    75   37  101 1    
    76   38   39 2    
    77   38   40 1    
    78   40   41 1    
    79   40   42 1    
    80   40  102 1    
    81   41  103 1    
    82   41  104 1    
    83   41  105 1    
    84   42   43 am   BACKBONE|DICT|INTERRES
    85   42  106 1    
    86   43   44 2    
    87   43   45 1    
    88   45   46 1    
    89   45   49 1    
    90   45  107 1    
    91   46   47 1    
    92   46  108 1    
    93   46  109 1    
    94   47   48 1    
    95   48  110 1    
    96   48  111 1    
    97   49   50 am   BACKBONE|DICT|INTERRES
    98   49  112 1    
    99   50   51 2    
   100   50   52 1    
   101   52   53 1    
   102   52   54 1    
   103   52  113 1    
   104   53  114 1    
   105   53  115 1    
   106   53  116 1    
   107   54   55 am   BACKBONE|DICT|INTERRES
   108   54  117 1    
   109   55   56 2    
   110   55   57 1    
   111   57   58 1    
   112   57   59 1    
   113   57  118 1    
   114   58  119 1    
   115   58  120 1    
   116   58  121 1    
   117   59   60 am   BACKBONE|DICT|INTERRES
   118   59  122 1    
   119   60   61 2    
   120   60   62 1    
   121   62   63 1    
   122   62   64 1    
   123   62  123 1    
   124   63  124 1    
   125   63  125 1    
   126   63  126 1    
   127   64   65 am   BACKBONE|DICT|INTERRES
   128   64  127 1    
   129   65   66 2    
@<TRIPOS>SUBSTRUCTURE
     1 UNK         1 GROUP             0       ****    0 ROOT    
