@<TRIPOS>MOLECULE
3R134
127   129    1
SMALL
USER_CHARGES


@<TRIPOS>ATOM
      1 CA         29.3550  -43.9974  -50.4995 C.3       0 UNK        -0.1968 
      2 C          30.7432  -44.3649  -49.9954 C.2       0 UNK         0.4852 
      3 O          31.3518  -43.5893  -49.2570 O.2       0 UNK        -0.5359 
      4 N          31.2442  -45.5382  -50.3906 N.am      1 UNK        -0.4300 
      5 CA         32.5524  -46.0843  -50.0386 C.3       1 UNK         0.0863 
      6 C6         33.7325  -45.3395  -50.7292 C.3       11 UNK        -0.0953 
      7 S7         33.7296  -45.4598  -52.5509 S.3       11 UNK        -0.2369 
      8 C8         33.1711  -43.7953  -53.0457 C.3       11 UNK         0.0226 
      9 C9         32.6992  -43.7458  -54.4965 C.ar      11 UNK        -0.0699 
     10 C10        33.4652  -44.3197  -55.5174 C.ar      11 UNK        -0.0804 
     11 C11        33.0222  -44.2978  -56.8422 C.ar      11 UNK        -0.0871 
     12 C12        31.8108  -43.6751  -57.1522 C.ar      11 UNK        -0.1008 
     13 C13        31.0460  -43.0739  -56.1479 C.ar      11 UNK        -0.0735 
     14 C14        31.4913  -43.1172  -54.8222 C.ar      11 UNK        -0.0945 
     15 C15        29.7481  -42.3658  -56.5065 C.3       11 UNK         0.0169 
     16 S16        28.3190  -43.4665  -56.2897 S.3       11 UNK        -0.2669 
     17 C17        27.1223  -42.7613  -57.4769 C.3       11 UNK        -0.0850 
     18 CA         25.6567  -42.7696  -56.9499 C.3       10 UNK         0.0855 
     19 C          24.6679  -42.0646  -57.9286 C.2       10 UNK         0.5543 
     20 N          23.4239  -42.5122  -58.0480 N.am      10 UNK        -0.7343 
     21 O          25.0204  -41.0748  -58.5660 O.2       10 UNK        -0.5027 
     22 N          25.2154  -44.0942  -56.4706 N.am      10 UNK        -0.4495 
     23 C          25.1343  -45.2186  -57.1941 C.2       10 UNK         0.4903 
     24 O          25.3679  -45.2848  -58.4021 O.2       10 UNK        -0.4860 
     25 CA         24.6921  -46.4642  -56.4102 C.3       9 UNK         0.0227 
     26 CB         23.1593  -46.6355  -56.4218 C.3       9 UNK        -0.1964 
     27 N          25.4049  -47.6765  -56.8295 N.am      9 UNK        -0.4231 
     28 C          25.2195  -48.4528  -57.9100 C.2       9 UNK         0.5014 
     29 O          24.3202  -48.2884  -58.7362 O.2       9 UNK        -0.5270 
     30 CA         26.1921  -49.6363  -58.1193 C.3       8 UNK         0.0284 
     31 CB         27.0364  -49.4231  -59.3876 C.3       8 UNK        -0.1977 
     32 N          27.0954  -49.8921  -56.9932 N.am      8 UNK        -0.4342 
     33 C          26.7362  -50.3687  -55.7935 C.2       8 UNK         0.5039 
     34 O          25.5976  -50.7499  -55.5209 O.2       8 UNK        -0.5547 
     35 CA         27.8173  -50.3700  -54.6960 C.3       7 UNK         0.0281 
     36 CB         28.5527  -51.7183  -54.6625 C.3       7 UNK        -0.1963 
     37 N          28.7907  -49.2780  -54.8309 N.am      7 UNK        -0.4444 
     38 C          28.4886  -47.9712  -54.7829 C.2       7 UNK         0.5104 
     39 O          27.3505  -47.5413  -54.5983 O.2       7 UNK        -0.5100 
     40 CA         29.6344  -46.9783  -55.0214 C.3       6 UNK         0.0396 
     41 CB         30.4538  -46.7698  -53.7448 C.3       6 UNK        -0.1801 
     42 N          30.5061  -47.4053  -56.1152 N.am      6 UNK        -0.4747 
     43 C          30.1926  -47.2800  -57.4132 C.2       6 UNK         0.5012 
     44 O          29.1740  -46.7221  -57.8198 O.2       6 UNK        -0.5003 
     45 CA         31.1371  -47.9419  -58.4378 C.3       5 UNK         0.0782 
     46 C46        32.1851  -46.9521  -59.0112 C.3       11 UNK        -0.0868 
     47 S47        33.6753  -46.7390  -57.9719 S.3       11 UNK        -0.2515 
     48 C48        33.8709  -44.9310  -57.9327 C.3       11 UNK         0.0199 
     49 N          31.7518  -49.1722  -57.9308 N.am      5 UNK        -0.4607 
     50 C          31.0911  -50.2954  -57.6262 C.2       4 UNK         0.5031 
     51 O          29.8805  -50.4413  -57.7884 O.2       4 UNK        -0.5119 
     52 CA         31.9173  -51.4261  -56.9899 C.3       4 UNK         0.0263 
     53 CB         32.5610  -52.2999  -58.0778 C.3       4 UNK        -0.1967 
     54 N          32.9527  -50.9391  -56.0701 N.am      4 UNK        -0.4237 
     55 C          32.7061  -50.2673  -54.9371 C.2       3 UNK         0.4908 
     56 O          31.5741  -49.9733  -54.5457 O.2       3 UNK        -0.5102 
     57 CA         33.9261  -49.8022  -54.1385 C.3       3 UNK         0.0241 
     58 CB         34.4299  -48.4468  -54.6653 C.3       3 UNK        -0.1971 
     59 N          33.5611  -49.6794  -52.7285 N.am      3 UNK        -0.4139 
     60 C          34.3918  -49.8813  -51.6995 C.2       2 UNK         0.5016 
     61 O          35.5878  -50.1517  -51.8308 O.2       2 UNK        -0.5319 
     62 CA         33.7945  -49.7236  -50.2883 C.3       2 UNK         0.0286 
     63 CB         34.6818  -50.3535  -49.1976 C.3       2 UNK        -0.1963 
     64 N          33.5996  -48.3065  -49.9776 N.am      2 UNK        -0.4790 
     65 C          32.5251  -47.5964  -50.3397 C.2       1 UNK         0.5024 
     66 O          31.5459  -48.0952  -50.9035 O.2       1 UNK        -0.4888 
     67 H67        29.4033  -43.0890  -51.0994 H         1 UNK         0.0892 
     68 H68        28.9212  -44.7859  -51.1142 H         1 UNK         0.0892 
     69 H69        28.6857  -43.8165  -49.6589 H         1 UNK         0.0892 
     70 H70        30.6953  -46.1814  -50.9479 H         1 UNK         0.3107 
     71 H71        32.6684  -45.9862  -48.9572 H         1 UNK         0.0773 
     72 H72        34.6858  -45.7319  -50.3725 H         1 UNK         0.0680 
     73 H73        33.7340  -44.2883  -50.4384 H         1 UNK         0.0680 
     74 H74        33.9884  -43.0867  -52.9078 H         1 UNK         0.0650 
     75 H75        32.3666  -43.4818  -52.3795 H         1 UNK         0.0650 
     76 H76        34.4037  -44.8011  -55.2788 H         1 UNK         0.1397 
     77 H77        31.4648  -43.6507  -58.1764 H         1 UNK         0.1363 
     78 H78        30.8929  -42.6612  -54.0454 H         1 UNK         0.1355 
     79 H79        29.6171  -41.4760  -55.8890 H         1 UNK         0.0707 
     80 H80        29.7947  -42.0202  -57.5405 H         1 UNK         0.0707 
     81 H81        27.4241  -41.7390  -57.7114 H         1 UNK         0.1034 
     82 H82        27.1979  -43.3180  -58.4123 H         1 UNK         0.1034 
     83 H83        25.6433  -42.1375  -56.0613 H         1 UNK         0.0482 
     84 H84        23.1219  -43.3195  -57.5272 H         1 UNK         0.3460 
     85 H85        22.7871  -42.0446  -58.6738 H         1 UNK         0.3460 
     86 H86        24.9835  -44.1366  -55.4886 H         1 UNK         0.2989 
     87 H87        24.9902  -46.3195  -55.3706 H         1 UNK         0.0559 
     88 H88        22.7599  -46.6811  -57.4354 H         1 UNK         0.0848 
     89 H89        22.6719  -45.7960  -55.9251 H         1 UNK         0.0848 
     90 H90        22.8556  -47.5421  -55.8984 H         1 UNK         0.0848 
     91 H91        26.1927  -47.9023  -56.2309 H         1 UNK         0.3144 
     92 H92        25.5811  -50.5295  -58.2639 H         1 UNK         0.0727 
     93 H93        27.6779  -50.2817  -59.5880 H         1 UNK         0.0790 
     94 H94        27.6719  -48.5411  -59.3021 H         1 UNK         0.0790 
     95 H95        26.4014  -49.2833  -60.2634 H         1 UNK         0.0790 
     96 H96        28.0813  -49.7062  -57.1512 H         1 UNK         0.3215 
     97 H97        27.3111  -50.2341  -53.7380 H         1 UNK         0.0863 
     98 H98        29.3201  -51.7369  -53.8882 H         1 UNK         0.0808 
     99 H99        29.0302  -51.9384  -55.6167 H         1 UNK         0.0808 
    100 H100       27.8586  -52.5331  -54.4529 H         1 UNK         0.0808 
    101 H101       29.7691  -49.5430  -54.9202 H         1 UNK         0.3118 
    102 H102       29.1909  -46.0177  -55.2849 H         1 UNK         0.0546 
    103 H103       29.8114  -46.4754  -52.9151 H         1 UNK         0.0828 
    104 H104       31.1877  -45.9800  -53.8837 H         1 UNK         0.0828 
    105 H105       30.9851  -47.6724  -53.4473 H         1 UNK         0.0828 
    106 H106       31.3444  -47.9091  -55.8645 H         1 UNK         0.3005 
    107 H107       30.4935  -48.2382  -59.2699 H         1 UNK         0.1257 
    108 H108       31.7280  -45.9835  -59.2223 H         1 UNK         0.0775 
    109 H109       32.5279  -47.3229  -59.9783 H         1 UNK         0.0775 
    110 H110       34.9212  -44.6993  -57.7496 H         1 UNK         0.0840 
    111 H111       33.6373  -44.5065  -58.9104 H         1 UNK         0.0840 
    112 H112       32.7464  -49.1264  -57.7628 H         1 UNK         0.2987 
    113 H113       31.2333  -52.0522  -56.4146 H         1 UNK         0.0785 
    114 H114       31.8053  -52.6894  -58.7617 H         1 UNK         0.0798 
    115 H115       33.0756  -53.1581  -57.6452 H         1 UNK         0.0798 
    116 H116       33.2824  -51.7401  -58.6745 H         1 UNK         0.0798 
    117 H117       33.9113  -51.1314  -56.3247 H         1 UNK         0.3079 
    118 H118       34.7136  -50.5514  -54.2458 H         1 UNK         0.0794 
    119 H119       33.6460  -47.6883  -54.6428 H         1 UNK         0.0786 
    120 H120       34.7754  -48.5296  -55.6960 H         1 UNK         0.0786 
    121 H121       35.2673  -48.0757  -54.0742 H         1 UNK         0.0786 
    122 H122       32.5855  -49.4649  -52.5530 H         1 UNK         0.3032 
    123 H123       32.8334  -50.2439  -50.2730 H         1 UNK         0.1094 
    124 H124       35.6569  -49.8688  -49.1345 H         1 UNK         0.0794 
    125 H125       34.2107  -50.2860  -48.2168 H         1 UNK         0.0794 
    126 H126       34.8557  -51.4112  -49.4001 H         1 UNK         0.0794 
    127 H127       34.3809  -47.8295  -49.5501 H         1 UNK         0.3016 
@<TRIPOS>BOND
     1    1    2 1    
     2    1   67 1    
     3    1   68 1    
     4    1   69 1    
     5    2    3 2    
     6    2    4 am   BACKBONE|DICT|INTERRES
     7    4    5 1    
     8    4   70 1    
     9    5    6 1    
    10    5   65 1    
    11    5   71 1    
    12    6    7 1    
    13    6   72 1    
    14    6   73 1    
    15    7    8 1    
    16    8    9 1    
    17    8   74 1    
    18    8   75 1    
    19    9   10 ar   
    20    9   14 ar   
    21   10   11 ar   
    22   10   76 1    
    23   11   12 ar   
    24   11   48 1    
    25   12   13 ar   
    26   12   77 1    
    27   13   14 ar   
    28   13   15 1    
    29   14   78 1    
    30   15   16 1    
    31   15   79 1    
    32   15   80 1    
    33   16   17 1    
    34   17   18 1    
    35   17   81 1    
    36   17   82 1    
    37   18   19 1    
    38   18   22 1    
    39   18   83 1    
    40   19   20 am   BACKBONE|DICT|INTERRES
    41   19   21 2    
    42   20   84 1    
    43   20   85 1    
    44   22   23 am   BACKBONE|DICT|INTERRES
    45   22   86 1    
    46   23   24 2    
    47   23   25 1    
    48   25   26 1    
    49   25   27 1    
    50   25   87 1    
    51   26   88 1    
    52   26   89 1    
    53   26   90 1    
    54   27   28 am   BACKBONE|DICT|INTERRES
    55   27   91 1    
    56   28   29 2    
    57   28   30 1    
    58   30   31 1    
    59   30   32 1    
    60   30   92 1    
    61   31   93 1    
    62   31   94 1    
    63   31   95 1    
    64   32   33 am   BACKBONE|DICT|INTERRES
    65   32   96 1    
    66   33   34 2    
    67   33   35 1    
    68   35   36 1    
    69   35   37 1    
    70   35   97 1    
    71   36   98 1    
    72   36   99 1    
    73   36  100 1    
    74   37   38 am   BACKBONE|DICT|INTERRES
    75   37  101 1    
    76   38   39 2    
    77   38   40 1    
    78   40   41 1    
    79   40   42 1    
    80   40  102 1    
    81   41  103 1    
    82   41  104 1    
    83   41  105 1    
    84   42   43 am   BACKBONE|DICT|INTERRES
    85   42  106 1    
    86   43   44 2    
    87   43   45 1    
    88   45   46 1    
    89   45   49 1    
    90   45  107 1    
    91   46   47 1    
    92   46  108 1    
    93   46  109 1    
    94   47   48 1    
    95   48  110 1    
    96   48  111 1    
    97   49   50 am   BACKBONE|DICT|INTERRES
    98   49  112 1    
    99   50   51 2    
   100   50   52 1    
   101   52   53 1    
   102   52   54 1    
   103   52  113 1    
   104   53  114 1    
   105   53  115 1    
   106   53  116 1    
   107   54   55 am   BACKBONE|DICT|INTERRES
   108   54  117 1    
   109   55   56 2    
   110   55   57 1    
   111   57   58 1    
   112   57   59 1    
   113   57  118 1    
   114   58  119 1    
   115   58  120 1    
   116   58  121 1    
   117   59   60 am   BACKBONE|DICT|INTERRES
   118   59  122 1    
   119   60   61 2    
   120   60   62 1    
   121   62   63 1    
   122   62   64 1    
   123   62  123 1    
   124   63  124 1    
   125   63  125 1    
   126   63  126 1    
   127   64   65 am   BACKBONE|DICT|INTERRES
   128   64  127 1    
   129   65   66 2    
@<TRIPOS>SUBSTRUCTURE
     1 UNK         1 GROUP             0       ****    0 ROOT    
