@<TRIPOS>MOLECULE
3R134
127   129    1
SMALL
USER_CHARGES


@<TRIPOS>ATOM
      1 CA         36.6858  -46.2680  -51.8172 C.3       0 UNK        -0.1968 
      2 C          36.5451  -46.1412  -53.3270 C.2       0 UNK         0.4852 
      3 O          37.4837  -46.4621  -54.0577 O.2       0 UNK        -0.5359 
      4 N          35.3806  -45.6737  -53.7966 N.am      1 UNK        -0.4300 
      5 CA         35.0501  -45.5098  -55.2190 C.3       1 UNK         0.0863 
      6 C6         33.7848  -44.6400  -55.4167 C.3       11 UNK        -0.0953 
      7 S7         34.0106  -42.9242  -54.8375 S.3       11 UNK        -0.2369 
      8 C8         32.9710  -42.8781  -53.3331 C.3       11 UNK         0.0226 
      9 C9         31.4624  -43.0512  -53.5382 C.ar      11 UNK        -0.0699 
     10 C10        30.6602  -43.2404  -52.4078 C.ar      11 UNK        -0.0804 
     11 C11        29.2774  -43.4113  -52.5257 C.ar      11 UNK        -0.0871 
     12 C12        28.6905  -43.4073  -53.7935 C.ar      11 UNK        -0.1008 
     13 C13        29.4747  -43.2113  -54.9331 C.ar      11 UNK        -0.0735 
     14 C14        30.8524  -43.0198  -54.7998 C.ar      11 UNK        -0.0945 
     15 C15        28.8425  -43.2498  -56.3139 C.3       11 UNK         0.0169 
     16 S16        27.9390  -41.7226  -56.6956 S.3       11 UNK        -0.2669 
     17 C17        27.6467  -41.9281  -58.4866 C.3       11 UNK        -0.0850 
     18 CA         26.3825  -42.7703  -58.7980 C.3       10 UNK         0.0855 
     19 C          25.9148  -42.5513  -60.2621 C.2       10 UNK         0.5543 
     20 N          25.0539  -41.5705  -60.4958 N.am      10 UNK        -0.7343 
     21 O          26.3539  -43.2299  -61.1890 O.2       10 UNK        -0.5027 
     22 N          26.6066  -44.1955  -58.5188 N.am      10 UNK        -0.4495 
     23 C          25.6417  -45.0906  -58.2952 C.2       10 UNK         0.4903 
     24 O          24.4507  -44.7927  -58.1961 O.2       10 UNK        -0.4860 
     25 CA         26.0441  -46.5706  -58.1513 C.3       9 UNK         0.0227 
     26 CB         25.8783  -47.3114  -59.4920 C.3       9 UNK        -0.1964 
     27 N          27.3639  -46.8464  -57.5629 N.am      9 UNK        -0.4231 
     28 C          28.5911  -46.6089  -58.0509 C.2       9 UNK         0.5014 
     29 O          28.8138  -45.9142  -59.0428 O.2       9 UNK        -0.5270 
     30 CA         29.7736  -47.2769  -57.3195 C.3       8 UNK         0.0284 
     31 CB         30.3612  -46.3616  -56.2363 C.3       8 UNK        -0.1977 
     32 N          29.4217  -48.5690  -56.7234 N.am      8 UNK        -0.4342 
     33 C          29.1453  -49.6771  -57.4275 C.2       8 UNK         0.5039 
     34 O          29.1871  -49.7407  -58.6565 O.2       8 UNK        -0.5547 
     35 CA         28.7543  -50.9267  -56.6260 C.3       7 UNK         0.0281 
     36 CB         30.0064  -51.7042  -56.1961 C.3       7 UNK        -0.1963 
     37 N          27.9537  -50.5833  -55.4492 N.am      7 UNK        -0.4444 
     38 C          26.6355  -50.3408  -55.4923 C.2       7 UNK         0.5104 
     39 O          25.9499  -50.4560  -56.5083 O.2       7 UNK        -0.5100 
     40 CA         25.9641  -49.8731  -54.1883 C.3       6 UNK         0.0396 
     41 CB         25.4977  -51.0814  -53.3613 C.3       6 UNK        -0.1801 
     42 N          26.8208  -49.0202  -53.3610 N.am      6 UNK        -0.4747 
     43 C          27.2829  -47.8126  -53.7194 C.2       6 UNK         0.5012 
     44 O          27.0191  -47.2713  -54.7918 O.2       6 UNK        -0.5003 
     45 CA         28.2334  -47.1084  -52.7310 C.3       5 UNK         0.0782 
     46 C46        27.4273  -46.1784  -51.7924 C.3       11 UNK        -0.0868 
     47 S47        28.4869  -45.2678  -50.6178 S.3       11 UNK        -0.2515 
     48 C48        28.4215  -43.5730  -51.2779 C.3       11 UNK         0.0199 
     49 N          29.0810  -48.0460  -51.9831 N.am      5 UNK        -0.4607 
     50 C          29.9362  -48.9305  -52.5116 C.2       4 UNK         0.5031 
     51 O          30.0756  -49.1029  -53.7269 O.2       4 UNK        -0.5119 
     52 CA         30.7600  -49.7318  -51.4863 C.3       4 UNK         0.0263 
     53 CB         29.8635  -50.5568  -50.5363 C.3       4 UNK        -0.1967 
     54 N          31.7994  -50.5568  -52.1100 N.am      4 UNK        -0.4237 
     55 C          31.6708  -51.6920  -52.8094 C.2       3 UNK         0.4908 
     56 O          30.6113  -52.3029  -52.9603 O.2       3 UNK        -0.5102 
     57 CA         32.9645  -52.2089  -53.4772 C.3       3 UNK         0.0241 
     58 CB         32.8080  -53.6325  -54.0445 C.3       3 UNK        -0.1971 
     59 N          33.4123  -51.3171  -54.5528 N.am      3 UNK        -0.4139 
     60 C          33.9338  -50.0947  -54.3828 C.2       2 UNK         0.5016 
     61 O          34.1976  -49.6164  -53.2732 O.2       2 UNK        -0.5319 
     62 CA         34.1568  -49.2485  -55.6466 C.3       2 UNK         0.0286 
     63 CB         32.9392  -49.2987  -56.5950 C.3       2 UNK        -0.1963 
     64 N          34.4068  -47.8784  -55.2090 N.am      2 UNK        -0.4790 
     65 C          34.8757  -46.8630  -55.9421 C.2       1 UNK         0.5024 
     66 O          35.1635  -46.9556  -57.1361 O.2       1 UNK        -0.4888 
     67 H67        35.7990  -45.9130  -51.2925 H         1 UNK         0.0892 
     68 H68        36.8469  -47.3104  -51.5431 H         1 UNK         0.0892 
     69 H69        37.5399  -45.6875  -51.4695 H         1 UNK         0.0892 
     70 H70        34.6545  -45.4122  -53.1465 H         1 UNK         0.3107 
     71 H71        35.8898  -45.0021  -55.6992 H         1 UNK         0.0773 
     72 H72        32.9267  -45.0922  -54.9164 H         1 UNK         0.0680 
     73 H73        33.5209  -44.5838  -56.4748 H         1 UNK         0.0680 
     74 H74        33.1388  -41.9194  -52.8409 H         1 UNK         0.0650 
     75 H75        33.3305  -43.6431  -52.6439 H         1 UNK         0.0650 
     76 H76        31.1139  -43.2523  -51.4257 H         1 UNK         0.1397 
     77 H77        27.6232  -43.5482  -53.8979 H         1 UNK         0.1363 
     78 H78        31.4426  -42.8631  -55.6907 H         1 UNK         0.1355 
     79 H79        28.1567  -44.0953  -56.3584 H         1 UNK         0.0707 
     80 H80        29.6021  -43.4204  -57.0779 H         1 UNK         0.0707 
     81 H81        28.5297  -42.3514  -58.9692 H         1 UNK         0.1034 
     82 H82        27.5428  -40.9213  -58.8967 H         1 UNK         0.1034 
     83 H83        25.5797  -42.4226  -58.1438 H         1 UNK         0.0482 
     84 H84        24.6947  -41.0017  -59.7446 H         1 UNK         0.3460 
     85 H85        24.7488  -41.4008  -61.4416 H         1 UNK         0.3460 
     86 H86        27.5391  -44.5578  -58.6942 H         1 UNK         0.2989 
     87 H87        25.3320  -47.0093  -57.4503 H         1 UNK         0.0559 
     88 H88        24.8638  -47.2002  -59.8770 H         1 UNK         0.0848 
     89 H89        26.0676  -48.3793  -59.3796 H         1 UNK         0.0848 
     90 H90        26.5576  -46.9281  -60.2542 H         1 UNK         0.0848 
     91 H91        27.3184  -47.2929  -56.6495 H         1 UNK         0.3144 
     92 H92        30.5546  -47.4598  -58.0607 H         1 UNK         0.0727 
     93 H93        29.6050  -46.0577  -55.5139 H         1 UNK         0.0790 
     94 H94        30.7793  -45.4591  -56.6815 H         1 UNK         0.0790 
     95 H95        31.1680  -46.8485  -55.6889 H         1 UNK         0.0790 
     96 H96        29.4166  -48.6280  -55.7112 H         1 UNK         0.3215 
     97 H97        28.1661  -51.5740  -57.2806 H         1 UNK         0.0863 
     98 H98        29.7422  -52.6175  -55.6627 H         1 UNK         0.0808 
     99 H99        30.6416  -51.1074  -55.5428 H         1 UNK         0.0808 
    100 H100       30.6040  -51.9933  -57.0614 H         1 UNK         0.0808 
    101 H101       28.4550  -50.4336  -54.5822 H         1 UNK         0.3118 
    102 H102       25.0836  -49.2886  -54.4635 H         1 UNK         0.0546 
    103 H103       26.3373  -51.6938  -53.0296 H         1 UNK         0.0828 
    104 H104       24.8384  -51.7234  -53.9473 H         1 UNK         0.0828 
    105 H105       24.9397  -50.7681  -52.4788 H         1 UNK         0.0828 
    106 H106       27.0990  -49.3871  -52.4622 H         1 UNK         0.3005 
    107 H107       28.9037  -46.4847  -53.3253 H         1 UNK         0.1257 
    108 H108       26.8368  -45.4666  -52.3726 H         1 UNK         0.0775 
    109 H109       26.7085  -46.7565  -51.2082 H         1 UNK         0.0775 
    110 H110       27.3861  -43.2905  -51.4749 H         1 UNK         0.0840 
    111 H111       28.7760  -42.8860  -50.5080 H         1 UNK         0.0840 
    112 H112       29.0451  -47.9478  -50.9787 H         1 UNK         0.2987 
    113 H113       31.2993  -48.9996  -50.8834 H         1 UNK         0.0785 
    114 H114       29.2532  -49.9108  -49.9047 H         1 UNK         0.0798 
    115 H115       30.4603  -51.1798  -49.8702 H         1 UNK         0.0798 
    116 H116       29.1810  -51.2095  -51.0815 H         1 UNK         0.0798 
    117 H117       32.7148  -50.1167  -52.1674 H         1 UNK         0.3079 
    118 H118       33.7390  -52.2415  -52.7077 H         1 UNK         0.0794 
    119 H119       33.7505  -54.0058  -54.4455 H         1 UNK         0.0786 
    120 H120       32.0644  -53.6728  -54.8414 H         1 UNK         0.0786 
    121 H121       32.4902  -54.3288  -53.2672 H         1 UNK         0.0786 
    122 H122       33.2176  -51.6267  -55.4933 H         1 UNK         0.3032 
    123 H123       35.0453  -49.6231  -56.1592 H         1 UNK         0.1094 
    124 H124       32.0205  -49.0620  -56.0599 H         1 UNK         0.0794 
    125 H125       33.0321  -48.5951  -57.4218 H         1 UNK         0.0794 
    126 H126       32.8166  -50.2862  -57.0400 H         1 UNK         0.0794 
    127 H127       34.2698  -47.7479  -54.2135 H         1 UNK         0.3016 
@<TRIPOS>BOND
     1    1    2 1    
     2    1   67 1    
     3    1   68 1    
     4    1   69 1    
     5    2    3 2    
     6    2    4 am   BACKBONE|DICT|INTERRES
     7    4    5 1    
     8    4   70 1    
     9    5    6 1    
    10    5   65 1    
    11    5   71 1    
    12    6    7 1    
    13    6   72 1    
    14    6   73 1    
    15    7    8 1    
    16    8    9 1    
    17    8   74 1    
    18    8   75 1    
    19    9   10 ar   
    20    9   14 ar   
    21   10   11 ar   
    22   10   76 1    
    23   11   12 ar   
    24   11   48 1    
    25   12   13 ar   
    26   12   77 1    
    27   13   14 ar   
    28   13   15 1    
    29   14   78 1    
    30   15   16 1    
    31   15   79 1    
    32   15   80 1    
    33   16   17 1    
    34   17   18 1    
    35   17   81 1    
    36   17   82 1    
    37   18   19 1    
    38   18   22 1    
    39   18   83 1    
    40   19   20 am   BACKBONE|DICT|INTERRES
    41   19   21 2    
    42   20   84 1    
    43   20   85 1    
    44   22   23 am   BACKBONE|DICT|INTERRES
    45   22   86 1    
    46   23   24 2    
    47   23   25 1    
    48   25   26 1    
    49   25   27 1    
    50   25   87 1    
    51   26   88 1    
    52   26   89 1    
    53   26   90 1    
    54   27   28 am   BACKBONE|DICT|INTERRES
    55   27   91 1    
    56   28   29 2    
    57   28   30 1    
    58   30   31 1    
    59   30   32 1    
    60   30   92 1    
    61   31   93 1    
    62   31   94 1    
    63   31   95 1    
    64   32   33 am   BACKBONE|DICT|INTERRES
    65   32   96 1    
    66   33   34 2    
    67   33   35 1    
    68   35   36 1    
    69   35   37 1    
    70   35   97 1    
    71   36   98 1    
    72   36   99 1    
    73   36  100 1    
    74   37   38 am   BACKBONE|DICT|INTERRES
    75   37  101 1    
    76   38   39 2    
    77   38   40 1    
    78   40   41 1    
    79   40   42 1    
    80   40  102 1    
    81   41  103 1    
    82   41  104 1    
    83   41  105 1    
    84   42   43 am   BACKBONE|DICT|INTERRES
    85   42  106 1    
    86   43   44 2    
    87   43   45 1    
    88   45   46 1    
    89   45   49 1    
    90   45  107 1    
    91   46   47 1    
    92   46  108 1    
    93   46  109 1    
    94   47   48 1    
    95   48  110 1    
    96   48  111 1    
    97   49   50 am   BACKBONE|DICT|INTERRES
    98   49  112 1    
    99   50   51 2    
   100   50   52 1    
   101   52   53 1    
   102   52   54 1    
   103   52  113 1    
   104   53  114 1    
   105   53  115 1    
   106   53  116 1    
   107   54   55 am   BACKBONE|DICT|INTERRES
   108   54  117 1    
   109   55   56 2    
   110   55   57 1    
   111   57   58 1    
   112   57   59 1    
   113   57  118 1    
   114   58  119 1    
   115   58  120 1    
   116   58  121 1    
   117   59   60 am   BACKBONE|DICT|INTERRES
   118   59  122 1    
   119   60   61 2    
   120   60   62 1    
   121   62   63 1    
   122   62   64 1    
   123   62  123 1    
   124   63  124 1    
   125   63  125 1    
   126   63  126 1    
   127   64   65 am   BACKBONE|DICT|INTERRES
   128   64  127 1    
   129   65   66 2    
@<TRIPOS>SUBSTRUCTURE
     1 UNK         1 GROUP             0       ****    0 ROOT    
