@<TRIPOS>MOLECULE
3R134
127   129    1
SMALL
USER_CHARGES


@<TRIPOS>ATOM
      1 CA         35.8868  -44.3429  -50.4886 C.3       0 UNK        -0.1968 
      2 C          36.4450  -45.3465  -51.4871 C.2       0 UNK         0.4852 
      3 O          37.4767  -45.9659  -51.2214 O.2       0 UNK        -0.5359 
      4 N          35.7746  -45.5046  -52.6347 N.am      1 UNK        -0.4300 
      5 CA         36.1012  -46.4860  -53.6723 C.3       1 UNK         0.0863 
      6 C6         35.5088  -46.0833  -55.0490 C.3       11 UNK        -0.0953 
      7 S7         33.6979  -45.8342  -55.0431 S.3       11 UNK        -0.2369 
      8 C8         33.6087  -44.0357  -55.2902 C.3       11 UNK         0.0226 
      9 C9         32.1819  -43.5375  -55.1430 C.ar      11 UNK        -0.0699 
     10 C10        31.6611  -43.2838  -53.8728 C.ar      11 UNK        -0.0804 
     11 C11        30.3449  -42.8390  -53.7196 C.ar      11 UNK        -0.0871 
     12 C12        29.5535  -42.6246  -54.8521 C.ar      11 UNK        -0.1008 
     13 C13        30.0694  -42.8646  -56.1296 C.ar      11 UNK        -0.0735 
     14 C14        31.3821  -43.3264  -56.2689 C.ar      11 UNK        -0.0945 
     15 C15        29.2210  -42.6181  -57.3667 C.3       11 UNK         0.0169 
     16 S16        28.4704  -44.1599  -57.9672 S.3       11 UNK        -0.2669 
     17 C17        26.9675  -44.2769  -56.9298 C.3       11 UNK        -0.0850 
     18 CA         25.6563  -44.0701  -57.7342 C.3       10 UNK         0.0855 
     19 C          25.4235  -42.5790  -58.1178 C.2       10 UNK         0.5543 
     20 N          25.3024  -42.2295  -59.3926 N.am      10 UNK        -0.7343 
     21 O          25.3418  -41.7259  -57.2378 O.2       10 UNK        -0.5027 
     22 N          25.5814  -45.0295  -58.8443 N.am      10 UNK        -0.4495 
     23 C          24.4711  -45.4582  -59.4551 C.2       10 UNK         0.4903 
     24 O          23.3387  -45.0536  -59.1921 O.2       10 UNK        -0.4860 
     25 CA         24.6591  -46.5414  -60.5378 C.3       9 UNK         0.0227 
     26 CB         24.6798  -45.9029  -61.9362 C.3       9 UNK        -0.1964 
     27 N          25.8742  -47.3486  -60.3522 N.am      9 UNK        -0.4231 
     28 C          26.0835  -48.1732  -59.3161 C.2       9 UNK         0.5014 
     29 O          25.2367  -48.4111  -58.4502 O.2       9 UNK        -0.5270 
     30 CA         27.4776  -48.8073  -59.2100 C.3       8 UNK         0.0284 
     31 CB         28.5617  -47.7360  -58.9658 C.3       8 UNK        -0.1977 
     32 N          27.4579  -49.7523  -58.0990 N.am      8 UNK        -0.4342 
     33 C          28.3730  -50.6806  -57.8109 C.2       8 UNK         0.5039 
     34 O          29.3722  -50.8914  -58.5009 O.2       8 UNK        -0.5547 
     35 CA         28.1340  -51.4896  -56.5216 C.3       7 UNK         0.0281 
     36 CB         29.2755  -52.4744  -56.2133 C.3       7 UNK        -0.1963 
     37 N          27.9249  -50.6121  -55.3628 N.am      7 UNK        -0.4444 
     38 C          26.7409  -50.0859  -55.0212 C.2       7 UNK         0.5104 
     39 O          25.7149  -50.2516  -55.6811 O.2       7 UNK        -0.5100 
     40 CA         26.6739  -49.2396  -53.7455 C.3       6 UNK         0.0396 
     41 CB         26.6432  -50.1512  -52.5075 C.3       6 UNK        -0.1801 
     42 N          27.7989  -48.3115  -53.6197 N.am      6 UNK        -0.4747 
     43 C          27.6915  -46.9733  -53.6204 C.2       6 UNK         0.5012 
     44 O          26.6612  -46.3848  -53.9520 O.2       6 UNK        -0.5003 
     45 CA         28.9049  -46.1321  -53.1434 C.3       5 UNK         0.0782 
     46 C46        28.4430  -45.0728  -52.0949 C.3       11 UNK        -0.0868 
     47 S47        29.7857  -44.1049  -51.3223 S.3       11 UNK        -0.2515 
     48 C48        29.7892  -42.5869  -52.3267 C.3       11 UNK         0.0199 
     49 N          30.0485  -46.9522  -52.7095 N.am      5 UNK        -0.4607 
     50 C          30.1278  -47.7302  -51.6194 C.2       4 UNK         0.5031 
     51 O          29.2366  -47.8221  -50.7742 O.2       4 UNK        -0.5119 
     52 CA         31.4060  -48.5822  -51.4790 C.3       4 UNK         0.0263 
     53 CB         31.1916  -49.8216  -50.5847 C.3       4 UNK        -0.1967 
     54 N          32.0027  -48.9863  -52.7608 N.am      4 UNK        -0.4237 
     55 C          31.4144  -49.6767  -53.7541 C.2       3 UNK         0.4908 
     56 O          30.2246  -50.0008  -53.7524 O.2       3 UNK        -0.5102 
     57 CA         32.2741  -50.0484  -54.9775 C.3       3 UNK         0.0241 
     58 CB         31.8625  -49.2058  -56.1966 C.3       3 UNK        -0.1971 
     59 N          33.7147  -49.9113  -54.7530 N.am      3 UNK        -0.4139 
     60 C          34.4513  -50.7378  -53.9951 C.2       2 UNK         0.5016 
     61 O          34.0114  -51.7666  -53.4810 O.2       2 UNK        -0.5319 
     62 CA         35.9201  -50.3432  -53.7415 C.3       2 UNK         0.0286 
     63 CB         36.8601  -51.1804  -54.6243 C.3       2 UNK        -0.1963 
     64 N          36.2173  -48.9178  -53.9421 N.am      2 UNK        -0.4790 
     65 C          35.6626  -47.9063  -53.2581 C.2       1 UNK         0.5024 
     66 O          34.8010  -48.0663  -52.3888 O.2       1 UNK        -0.4888 
     67 H67        34.9806  -43.8617  -50.8563 H         1 UNK         0.0892 
     68 H68        36.6237  -43.5666  -50.2845 H         1 UNK         0.0892 
     69 H69        35.6479  -44.8420  -49.5499 H         1 UNK         0.0892 
     70 H70        34.9088  -45.0066  -52.7782 H         1 UNK         0.3107 
     71 H71        37.1884  -46.5076  -53.7772 H         1 UNK         0.0773 
     72 H72        35.7465  -46.8306  -55.8082 H         1 UNK         0.0680 
     73 H73        35.9954  -45.1693  -55.3930 H         1 UNK         0.0680 
     74 H74        34.2501  -43.5318  -54.5656 H         1 UNK         0.0650 
     75 H75        34.0007  -43.7872  -56.2777 H         1 UNK         0.0650 
     76 H76        32.2750  -43.4493  -52.9979 H         1 UNK         0.1397 
     77 H77        28.5386  -42.2685  -54.7405 H         1 UNK         0.1363 
     78 H78        31.7796  -43.5221  -57.2556 H         1 UNK         0.1355 
     79 H79        28.4474  -41.8738  -57.1705 H         1 UNK         0.0707 
     80 H80        29.8458  -42.2023  -58.1586 H         1 UNK         0.0707 
     81 H81        27.0222  -43.5839  -56.0892 H         1 UNK         0.1034 
     82 H82        26.9573  -45.2700  -56.4781 H         1 UNK         0.1034 
     83 H83        24.8354  -44.3154  -57.0575 H         1 UNK         0.0482 
     84 H84        25.3658  -42.9253  -60.1175 H         1 UNK         0.3460 
     85 H85        25.1471  -41.2623  -59.6292 H         1 UNK         0.3460 
     86 H86        26.4706  -45.3940  -59.1511 H         1 UNK         0.2989 
     87 H87        23.7991  -47.2121  -60.4818 H         1 UNK         0.0559 
     88 H88        23.7769  -45.3155  -62.1100 H         1 UNK         0.0848 
     89 H89        24.7244  -46.6607  -62.7187 H         1 UNK         0.0848 
     90 H90        25.5322  -45.2348  -62.0654 H         1 UNK         0.0848 
     91 H91        26.6122  -47.2224  -61.0307 H         1 UNK         0.3144 
     92 H92        27.6849  -49.3477  -60.1358 H         1 UNK         0.0727 
     93 H93        28.3923  -47.2059  -58.0277 H         1 UNK         0.0790 
     94 H94        28.5847  -46.9938  -59.7641 H         1 UNK         0.0790 
     95 H95        29.5573  -48.1772  -58.9184 H         1 UNK         0.0790 
     96 H96        26.6314  -49.6739  -57.5089 H         1 UNK         0.3215 
     97 H97        27.2333  -52.0857  -56.6851 H         1 UNK         0.0863 
     98 H98        29.0878  -53.0287  -55.2937 H         1 UNK         0.0808 
     99 H99        30.2286  -51.9609  -56.1089 H         1 UNK         0.0808 
    100 H100       29.3872  -53.2046  -57.0158 H         1 UNK         0.0808 
    101 H101       28.7396  -50.4104  -54.7865 H         1 UNK         0.3118 
    102 H102       25.7299  -48.6911  -53.7713 H         1 UNK         0.0546 
    103 H103       27.5632  -50.7287  -52.4059 H         1 UNK         0.0828 
    104 H104       25.8152  -50.8593  -52.5616 H         1 UNK         0.0828 
    105 H105       26.5141  -49.5703  -51.5940 H         1 UNK         0.0828 
    106 H106       28.6983  -48.7260  -53.3976 H         1 UNK         0.3005 
    107 H107       29.2499  -45.5902  -54.0258 H         1 UNK         0.1257 
    108 H108       27.8979  -45.5591  -51.2839 H         1 UNK         0.0775 
    109 H109       27.7321  -44.3794  -52.5479 H         1 UNK         0.0775 
    110 H110       30.4079  -41.8380  -51.8304 H         1 UNK         0.0840 
    111 H111       28.7809  -42.1718  -52.3681 H         1 UNK         0.0840 
    112 H112       30.8408  -46.9488  -53.3356 H         1 UNK         0.2987 
    113 H113       32.1422  -47.9425  -50.9898 H         1 UNK         0.0785 
    114 H114       32.1097  -50.4005  -50.4839 H         1 UNK         0.0798 
    115 H115       30.4221  -50.4807  -50.9884 H         1 UNK         0.0798 
    116 H116       30.8804  -49.5334  -49.5799 H         1 UNK         0.0798 
    117 H117       32.9846  -48.7450  -52.8595 H         1 UNK         0.3079 
    118 H118       32.0770  -51.0974  -55.2007 H         1 UNK         0.0794 
    119 H119       32.0495  -48.1436  -56.0393 H         1 UNK         0.0786 
    120 H120       30.7987  -49.3179  -56.4102 H         1 UNK         0.0786 
    121 H121       32.4013  -49.5140  -57.0928 H         1 UNK         0.0786 
    122 H122       34.1634  -49.0957  -55.1437 H         1 UNK         0.3032 
    123 H123       36.1319  -50.5780  -52.6958 H         1 UNK         0.1094 
    124 H124       37.9064  -50.9902  -54.3842 H         1 UNK         0.0794 
    125 H125       36.6867  -52.2476  -54.4779 H         1 UNK         0.0794 
    126 H126       36.7133  -50.9695  -55.6844 H         1 UNK         0.0794 
    127 H127       36.9079  -48.7024  -54.6479 H         1 UNK         0.3016 
@<TRIPOS>BOND
     1    1    2 1    
     2    1   67 1    
     3    1   68 1    
     4    1   69 1    
     5    2    3 2    
     6    2    4 am   BACKBONE|DICT|INTERRES
     7    4    5 1    
     8    4   70 1    
     9    5    6 1    
    10    5   65 1    
    11    5   71 1    
    12    6    7 1    
    13    6   72 1    
    14    6   73 1    
    15    7    8 1    
    16    8    9 1    
    17    8   74 1    
    18    8   75 1    
    19    9   10 ar   
    20    9   14 ar   
    21   10   11 ar   
    22   10   76 1    
    23   11   12 ar   
    24   11   48 1    
    25   12   13 ar   
    26   12   77 1    
    27   13   14 ar   
    28   13   15 1    
    29   14   78 1    
    30   15   16 1    
    31   15   79 1    
    32   15   80 1    
    33   16   17 1    
    34   17   18 1    
    35   17   81 1    
    36   17   82 1    
    37   18   19 1    
    38   18   22 1    
    39   18   83 1    
    40   19   20 am   BACKBONE|DICT|INTERRES
    41   19   21 2    
    42   20   84 1    
    43   20   85 1    
    44   22   23 am   BACKBONE|DICT|INTERRES
    45   22   86 1    
    46   23   24 2    
    47   23   25 1    
    48   25   26 1    
    49   25   27 1    
    50   25   87 1    
    51   26   88 1    
    52   26   89 1    
    53   26   90 1    
    54   27   28 am   BACKBONE|DICT|INTERRES
    55   27   91 1    
    56   28   29 2    
    57   28   30 1    
    58   30   31 1    
    59   30   32 1    
    60   30   92 1    
    61   31   93 1    
    62   31   94 1    
    63   31   95 1    
    64   32   33 am   BACKBONE|DICT|INTERRES
    65   32   96 1    
    66   33   34 2    
    67   33   35 1    
    68   35   36 1    
    69   35   37 1    
    70   35   97 1    
    71   36   98 1    
    72   36   99 1    
    73   36  100 1    
    74   37   38 am   BACKBONE|DICT|INTERRES
    75   37  101 1    
    76   38   39 2    
    77   38   40 1    
    78   40   41 1    
    79   40   42 1    
    80   40  102 1    
    81   41  103 1    
    82   41  104 1    
    83   41  105 1    
    84   42   43 am   BACKBONE|DICT|INTERRES
    85   42  106 1    
    86   43   44 2    
    87   43   45 1    
    88   45   46 1    
    89   45   49 1    
    90   45  107 1    
    91   46   47 1    
    92   46  108 1    
    93   46  109 1    
    94   47   48 1    
    95   48  110 1    
    96   48  111 1    
    97   49   50 am   BACKBONE|DICT|INTERRES
    98   49  112 1    
    99   50   51 2    
   100   50   52 1    
   101   52   53 1    
   102   52   54 1    
   103   52  113 1    
   104   53  114 1    
   105   53  115 1    
   106   53  116 1    
   107   54   55 am   BACKBONE|DICT|INTERRES
   108   54  117 1    
   109   55   56 2    
   110   55   57 1    
   111   57   58 1    
   112   57   59 1    
   113   57  118 1    
   114   58  119 1    
   115   58  120 1    
   116   58  121 1    
   117   59   60 am   BACKBONE|DICT|INTERRES
   118   59  122 1    
   119   60   61 2    
   120   60   62 1    
   121   62   63 1    
   122   62   64 1    
   123   62  123 1    
   124   63  124 1    
   125   63  125 1    
   126   63  126 1    
   127   64   65 am   BACKBONE|DICT|INTERRES
   128   64  127 1    
   129   65   66 2    
@<TRIPOS>SUBSTRUCTURE
     1 UNK         1 GROUP             0       ****    0 ROOT    
