@<TRIPOS>MOLECULE
3R134
127   129    1
SMALL
USER_CHARGES


@<TRIPOS>ATOM
      1 CA         31.0076  -43.2211  -51.0462 C.3       0 UNK        -0.1968 
      2 C          32.4791  -43.4110  -50.7060 C.2       0 UNK         0.4852 
      3 O          32.9097  -43.0325  -49.6152 O.2       0 UNK        -0.5359 
      4 N          33.2498  -43.9920  -51.6333 N.am      1 UNK        -0.4300 
      5 CA         34.6528  -44.3726  -51.4492 C.3       1 UNK         0.0863 
      6 C6         35.4162  -44.3975  -52.8025 C.3       11 UNK        -0.0953 
      7 S7         34.6774  -45.5038  -54.0545 S.3       11 UNK        -0.2369 
      8 C8         33.8918  -44.3179  -55.1874 C.3       11 UNK         0.0226 
      9 C9         32.6210  -44.8895  -55.7987 C.ar      11 UNK        -0.0699 
     10 C10        32.6725  -45.6429  -56.9767 C.ar      11 UNK        -0.0804 
     11 C11        31.4958  -46.1166  -57.5681 C.ar      11 UNK        -0.0871 
     12 C12        30.2653  -45.8370  -56.9679 C.ar      11 UNK        -0.1008 
     13 C13        30.2036  -45.1067  -55.7779 C.ar      11 UNK        -0.0735 
     14 C14        31.3839  -44.6337  -55.1997 C.ar      11 UNK        -0.0945 
     15 C15        28.8566  -44.7883  -55.1495 C.3       11 UNK         0.0169 
     16 S16        27.9457  -46.3008  -54.7140 S.3       11 UNK        -0.2669 
     17 C17        26.2494  -45.6510  -54.5406 C.3       11 UNK        -0.0850 
     18 CA         25.3749  -45.9881  -55.7820 C.3       10 UNK         0.0855 
     19 C          23.8465  -45.7834  -55.5441 C.2       10 UNK         0.5543 
     20 N          23.0546  -45.4675  -56.5633 N.am      10 UNK        -0.7343 
     21 O          23.3605  -45.9484  -54.4281 O.2       10 UNK        -0.5027 
     22 N          25.8838  -45.3904  -57.0285 N.am      10 UNK        -0.4495 
     23 C          25.8822  -44.0870  -57.3468 C.2       10 UNK         0.4903 
     24 O          25.5627  -43.1873  -56.5696 O.2       10 UNK        -0.4860 
     25 CA         26.2816  -43.7179  -58.7898 C.3       9 UNK         0.0227 
     26 CB         27.7543  -43.2793  -58.8414 C.3       9 UNK        -0.1964 
     27 N          26.0657  -44.7999  -59.7569 N.am      9 UNK        -0.4231 
     28 C          24.8871  -45.3783  -60.0300 C.2       9 UNK         0.5014 
     29 O          23.8109  -45.0022  -59.5614 O.2       9 UNK        -0.5270 
     30 CA         24.9175  -46.6450  -60.9053 C.3       8 UNK         0.0284 
     31 CB         26.1402  -46.7283  -61.8486 C.3       8 UNK        -0.1977 
     32 N          24.8102  -47.8547  -60.0773 N.am      8 UNK        -0.4342 
     33 C          25.6340  -48.2225  -59.0853 C.2       8 UNK         0.5039 
     34 O          26.6482  -47.5952  -58.7560 O.2       8 UNK        -0.5547 
     35 CA         25.2612  -49.4941  -58.3152 C.3       7 UNK         0.0281 
     36 CB         25.5509  -50.7576  -59.1460 C.3       7 UNK        -0.1963 
     37 N          26.0656  -49.5041  -57.1015 N.am      7 UNK        -0.4444 
     38 C          25.8259  -50.1660  -55.9669 C.2       7 UNK         0.5104 
     39 O          24.8431  -50.8880  -55.7917 O.2       7 UNK        -0.5100 
     40 CA         26.8622  -49.9699  -54.8380 C.3       6 UNK         0.0396 
     41 CB         26.8964  -51.1520  -53.8472 C.3       6 UNK        -0.1801 
     42 N          28.2139  -49.6595  -55.3315 N.am      6 UNK        -0.4747 
     43 C          28.9842  -50.4297  -56.1190 C.2       6 UNK         0.5012 
     44 O          28.6600  -51.5501  -56.5142 O.2       6 UNK        -0.5003 
     45 CA         30.3401  -49.8479  -56.5645 C.3       5 UNK         0.0782 
     46 C46        30.2292  -49.2481  -57.9882 C.3       11 UNK        -0.0868 
     47 S47        31.8403  -48.6696  -58.6259 S.3       11 UNK        -0.2515 
     48 C48        31.5482  -46.8898  -58.8787 C.3       11 UNK         0.0199 
     49 N          30.9087  -48.8946  -55.6056 N.am      5 UNK        -0.4607 
     50 C          31.3998  -49.2308  -54.4079 C.2       4 UNK         0.5031 
     51 O          31.3018  -50.3551  -53.9104 O.2       4 UNK        -0.5119 
     52 CA         32.1304  -48.1173  -53.6414 C.3       4 UNK         0.0263 
     53 CB         31.1839  -47.4261  -52.6479 C.3       4 UNK        -0.1967 
     54 N          33.3109  -48.6111  -52.9250 N.am      4 UNK        -0.4237 
     55 C          34.3799  -49.1843  -53.4996 C.2       3 UNK         0.4908 
     56 O          34.5143  -49.3242  -54.7168 O.2       3 UNK        -0.5102 
     57 CA         35.4965  -49.6438  -52.5488 C.3       3 UNK         0.0241 
     58 CB         36.7523  -50.1527  -53.2835 C.3       3 UNK        -0.1971 
     59 N          35.8660  -48.5397  -51.6659 N.am      3 UNK        -0.4139 
     60 C          36.0138  -48.6203  -50.3381 C.2       2 UNK         0.5016 
     61 O          35.9077  -49.6683  -49.6997 O.2       2 UNK        -0.5319 
     62 CA         36.3283  -47.3131  -49.5814 C.3       2 UNK         0.0286 
     63 CB         37.8112  -47.2735  -49.1762 C.3       2 UNK        -0.1963 
     64 N          36.0019  -46.0815  -50.3142 N.am      2 UNK        -0.4790 
     65 C          34.7664  -45.7072  -50.6766 C.2       1 UNK         0.5024 
     66 O          33.7631  -46.3870  -50.4443 O.2       1 UNK        -0.4888 
     67 H67        30.7950  -42.1667  -51.2202 H         1 UNK         0.0892 
     68 H68        30.7180  -43.7812  -51.9347 H         1 UNK         0.0892 
     69 H69        30.3847  -43.5627  -50.2198 H         1 UNK         0.0892 
     70 H70        32.8361  -44.3243  -52.4906 H         1 UNK         0.3107 
     71 H71        35.1292  -43.6143  -50.8239 H         1 UNK         0.0773 
     72 H72        35.4714  -43.3851  -53.2050 H         1 UNK         0.0680 
     73 H73        36.4557  -44.6961  -52.6586 H         1 UNK         0.0680 
     74 H74        33.6551  -43.3928  -54.6598 H         1 UNK         0.0650 
     75 H75        34.6018  -44.0484  -55.9707 H         1 UNK         0.0650 
     76 H76        33.6277  -45.8453  -57.4421 H         1 UNK         0.1397 
     77 H77        29.3476  -46.1805  -57.4265 H         1 UNK         0.1363 
     78 H78        31.3375  -44.0445  -54.2955 H         1 UNK         0.1355 
     79 H79        28.2815  -44.1921  -55.8559 H         1 UNK         0.0707 
     80 H80        28.9732  -44.1777  -54.2530 H         1 UNK         0.0707 
     81 H81        26.2667  -44.5766  -54.3521 H         1 UNK         0.1034 
     82 H82        25.8303  -46.1044  -53.6408 H         1 UNK         0.1034 
     83 H83        25.4596  -47.0625  -55.9370 H         1 UNK         0.0482 
     84 H84        23.4301  -45.3229  -57.4927 H         1 UNK         0.3460 
     85 H85        22.0676  -45.3495  -56.3989 H         1 UNK         0.3460 
     86 H86        26.1900  -46.0571  -57.7325 H         1 UNK         0.2989 
     87 H87        25.6597  -42.8741  -59.0950 H         1 UNK         0.0559 
     88 H88        28.0278  -42.9191  -59.8332 H         1 UNK         0.0848 
     89 H89        28.4291  -44.0956  -58.5822 H         1 UNK         0.0848 
     90 H90        27.9448  -42.4658  -58.1399 H         1 UNK         0.0848 
     91 H91        26.8924  -45.2287  -60.1477 H         1 UNK         0.3144 
     92 H92        24.0230  -46.6084  -61.5293 H         1 UNK         0.0727 
     93 H93        26.0425  -47.5702  -62.5341 H         1 UNK         0.0790 
     94 H94        27.0805  -46.8566  -61.3115 H         1 UNK         0.0790 
     95 H95        26.2269  -45.8288  -62.4598 H         1 UNK         0.0790 
     96 H96        23.9897  -48.4205  -60.2476 H         1 UNK         0.3215 
     97 H97        24.2032  -49.4495  -58.0483 H         1 UNK         0.0863 
     98 H98        25.3012  -51.6628  -58.5922 H         1 UNK         0.0808 
     99 H99        26.6033  -50.8196  -59.4267 H         1 UNK         0.0808 
    100 H100       24.9646  -50.7708  -60.0654 H         1 UNK         0.0808 
    101 H101       26.8659  -48.8845  -57.1537 H         1 UNK         0.3118 
    102 H102       26.5352  -49.0894  -54.2834 H         1 UNK         0.0546 
    103 H103       27.1430  -52.0907  -54.3441 H         1 UNK         0.0828 
    104 H104       25.9278  -51.2862  -53.3643 H         1 UNK         0.0828 
    105 H105       27.6302  -50.9869  -53.0584 H         1 UNK         0.0828 
    106 H106       28.5726  -48.7488  -55.0728 H         1 UNK         0.3005 
    107 H107       31.0292  -50.6946  -56.6167 H         1 UNK         0.1257 
    108 H108       29.8572  -50.0005  -58.6867 H         1 UNK         0.0775 
    109 H109       29.5001  -48.4371  -58.0136 H         1 UNK         0.0775 
    110 H110       32.3496  -46.4912  -59.5027 H         1 UNK         0.0840 
    111 H111       30.6281  -46.7467  -59.4480 H         1 UNK         0.0840 
    112 H112       31.0406  -47.9512  -55.9464 H         1 UNK         0.2987 
    113 H113       32.4731  -47.3779  -54.3659 H         1 UNK         0.0785 
    114 H114       30.8302  -48.1159  -51.8808 H         1 UNK         0.0798 
    115 H115       31.6726  -46.5894  -52.1501 H         1 UNK         0.0798 
    116 H116       30.3079  -47.0264  -53.1571 H         1 UNK         0.0798 
    117 H117       33.2972  -48.5158  -51.9192 H         1 UNK         0.3079 
    118 H118       35.0826  -50.4712  -51.9684 H         1 UNK         0.0794 
    119 H119       36.5110  -50.9926  -53.9365 H         1 UNK         0.0786 
    120 H120       37.5091  -50.4983  -52.5792 H         1 UNK         0.0786 
    121 H121       37.2003  -49.3737  -53.9016 H         1 UNK         0.0786 
    122 H122       35.9429  -47.6303  -52.1005 H         1 UNK         0.3032 
    123 H123       35.7248  -47.3252  -48.6708 H         1 UNK         0.1094 
    124 H124       38.0830  -48.1592  -48.5998 H         1 UNK         0.0794 
    125 H125       38.4670  -47.2387  -50.0472 H         1 UNK         0.0794 
    126 H126       38.0308  -46.4063  -48.5532 H         1 UNK         0.0794 
    127 H127       36.7788  -45.4755  -50.5386 H         1 UNK         0.3016 
@<TRIPOS>BOND
     1    1    2 1    
     2    1   67 1    
     3    1   68 1    
     4    1   69 1    
     5    2    3 2    
     6    2    4 am   BACKBONE|DICT|INTERRES
     7    4    5 1    
     8    4   70 1    
     9    5    6 1    
    10    5   65 1    
    11    5   71 1    
    12    6    7 1    
    13    6   72 1    
    14    6   73 1    
    15    7    8 1    
    16    8    9 1    
    17    8   74 1    
    18    8   75 1    
    19    9   10 ar   
    20    9   14 ar   
    21   10   11 ar   
    22   10   76 1    
    23   11   12 ar   
    24   11   48 1    
    25   12   13 ar   
    26   12   77 1    
    27   13   14 ar   
    28   13   15 1    
    29   14   78 1    
    30   15   16 1    
    31   15   79 1    
    32   15   80 1    
    33   16   17 1    
    34   17   18 1    
    35   17   81 1    
    36   17   82 1    
    37   18   19 1    
    38   18   22 1    
    39   18   83 1    
    40   19   20 am   BACKBONE|DICT|INTERRES
    41   19   21 2    
    42   20   84 1    
    43   20   85 1    
    44   22   23 am   BACKBONE|DICT|INTERRES
    45   22   86 1    
    46   23   24 2    
    47   23   25 1    
    48   25   26 1    
    49   25   27 1    
    50   25   87 1    
    51   26   88 1    
    52   26   89 1    
    53   26   90 1    
    54   27   28 am   BACKBONE|DICT|INTERRES
    55   27   91 1    
    56   28   29 2    
    57   28   30 1    
    58   30   31 1    
    59   30   32 1    
    60   30   92 1    
    61   31   93 1    
    62   31   94 1    
    63   31   95 1    
    64   32   33 am   BACKBONE|DICT|INTERRES
    65   32   96 1    
    66   33   34 2    
    67   33   35 1    
    68   35   36 1    
    69   35   37 1    
    70   35   97 1    
    71   36   98 1    
    72   36   99 1    
    73   36  100 1    
    74   37   38 am   BACKBONE|DICT|INTERRES
    75   37  101 1    
    76   38   39 2    
    77   38   40 1    
    78   40   41 1    
    79   40   42 1    
    80   40  102 1    
    81   41  103 1    
    82   41  104 1    
    83   41  105 1    
    84   42   43 am   BACKBONE|DICT|INTERRES
    85   42  106 1    
    86   43   44 2    
    87   43   45 1    
    88   45   46 1    
    89   45   49 1    
    90   45  107 1    
    91   46   47 1    
    92   46  108 1    
    93   46  109 1    
    94   47   48 1    
    95   48  110 1    
    96   48  111 1    
    97   49   50 am   BACKBONE|DICT|INTERRES
    98   49  112 1    
    99   50   51 2    
   100   50   52 1    
   101   52   53 1    
   102   52   54 1    
   103   52  113 1    
   104   53  114 1    
   105   53  115 1    
   106   53  116 1    
   107   54   55 am   BACKBONE|DICT|INTERRES
   108   54  117 1    
   109   55   56 2    
   110   55   57 1    
   111   57   58 1    
   112   57   59 1    
   113   57  118 1    
   114   58  119 1    
   115   58  120 1    
   116   58  121 1    
   117   59   60 am   BACKBONE|DICT|INTERRES
   118   59  122 1    
   119   60   61 2    
   120   60   62 1    
   121   62   63 1    
   122   62   64 1    
   123   62  123 1    
   124   63  124 1    
   125   63  125 1    
   126   63  126 1    
   127   64   65 am   BACKBONE|DICT|INTERRES
   128   64  127 1    
   129   65   66 2    
@<TRIPOS>SUBSTRUCTURE
     1 UNK         1 GROUP             0       ****    0 ROOT    
