@<TRIPOS>MOLECULE
3R134
127   129    1
SMALL
USER_CHARGES


@<TRIPOS>ATOM
      1 CA         38.2078  -48.7510  -51.9443 C.3       0 UNK        -0.1968 
      2 C          36.9997  -48.2053  -52.6907 C.2       0 UNK         0.4852 
      3 O          36.1335  -48.9813  -53.0980 O.2       0 UNK        -0.5359 
      4 N          36.9273  -46.8752  -52.8587 N.am      1 UNK        -0.4300 
      5 CA         35.8581  -46.1604  -53.5740 C.3       1 UNK         0.0863 
      6 C6         36.1681  -44.6450  -53.7018 C.3       11 UNK        -0.0953 
      7 S7         35.5473  -43.9189  -55.2591 S.3       11 UNK        -0.2369 
      8 C8         34.4894  -42.5500  -54.6845 C.3       11 UNK         0.0226 
      9 C9         33.0126  -42.9166  -54.7223 C.ar      11 UNK        -0.0699 
     10 C10        32.3926  -43.4835  -53.6050 C.ar      11 UNK        -0.0804 
     11 C11        31.0363  -43.8270  -53.6317 C.ar      11 UNK        -0.0871 
     12 C12        30.2989  -43.5755  -54.7969 C.ar      11 UNK        -0.1008 
     13 C13        30.9002  -42.9902  -55.9140 C.ar      11 UNK        -0.0735 
     14 C14        32.2598  -42.6704  -55.8747 C.ar      11 UNK        -0.0945 
     15 C15        30.0677  -42.6955  -57.1523 C.3       11 UNK         0.0169 
     16 S16        29.6544  -44.2231  -58.0428 S.3       11 UNK        -0.2669 
     17 C17        28.4698  -43.5973  -59.2829 C.3       11 UNK        -0.0850 
     18 CA         26.9983  -43.5518  -58.7838 C.3       10 UNK         0.0855 
     19 C          26.0541  -43.1295  -59.9478 C.2       10 UNK         0.5543 
     20 N          25.2206  -44.0153  -60.4813 N.am      10 UNK        -0.7343 
     21 O          26.0855  -41.9779  -60.3740 O.2       10 UNK        -0.5027 
     22 N          26.6207  -44.7943  -58.0945 N.am      10 UNK        -0.4495 
     23 C          25.5007  -45.0096  -57.3923 C.2       10 UNK         0.4903 
     24 O          24.6411  -44.1504  -57.1941 O.2       10 UNK        -0.4860 
     25 CA         25.3249  -46.4214  -56.7944 C.3       9 UNK         0.0227 
     26 CB         23.8492  -46.8686  -56.7383 C.3       9 UNK        -0.1964 
     27 N          26.1694  -47.4381  -57.4390 N.am      9 UNK        -0.4231 
     28 C          26.1103  -47.8549  -58.7137 C.2       9 UNK         0.5014 
     29 O          25.2622  -47.4775  -59.5233 O.2       9 UNK        -0.5270 
     30 CA         27.2142  -48.8095  -59.1876 C.3       8 UNK         0.0284 
     31 CB         28.3924  -48.0026  -59.7627 C.3       8 UNK        -0.1977 
     32 N          27.7084  -49.6739  -58.1109 N.am      8 UNK        -0.4342 
     33 C          27.5699  -51.0052  -58.0848 C.2       8 UNK         0.5039 
     34 O          26.9613  -51.6512  -58.9395 O.2       8 UNK        -0.5547 
     35 CA         28.2480  -51.7587  -56.9298 C.3       7 UNK         0.0281 
     36 CB         29.7478  -51.9442  -57.2138 C.3       7 UNK        -0.1963 
     37 N          28.0744  -51.1302  -55.6190 N.am      7 UNK        -0.4444 
     38 C          26.9259  -51.1252  -54.9275 C.2       7 UNK         0.5104 
     39 O          25.8576  -51.5530  -55.3652 O.2       7 UNK        -0.5100 
     40 CA         26.9847  -50.5760  -53.4936 C.3       6 UNK         0.0396 
     41 CB         27.6550  -51.5877  -52.5490 C.3       6 UNK        -0.1801 
     42 N          27.7057  -49.3053  -53.4412 N.am      6 UNK        -0.4747 
     43 C          27.1216  -48.1032  -53.5499 C.2       6 UNK         0.5012 
     44 O          25.9030  -47.9436  -53.6179 O.2       6 UNK        -0.5003 
     45 CA         28.0400  -46.8622  -53.6100 C.3       5 UNK         0.0782 
     46 C46        28.1459  -46.1934  -52.2153 C.3       11 UNK        -0.0868 
     47 S47        28.6011  -44.4303  -52.3082 S.3       11 UNK        -0.2515 
     48 C48        30.4252  -44.4904  -52.3956 C.3       11 UNK         0.0199 
     49 N          29.3601  -47.1708  -54.1726 N.am      5 UNK        -0.4607 
     50 C          29.5833  -47.5892  -55.4260 C.2       4 UNK         0.5031 
     51 O          28.6959  -47.7250  -56.2678 O.2       4 UNK        -0.5119 
     52 CA         31.0179  -48.0104  -55.7800 C.3       4 UNK         0.0263 
     53 CB         31.7944  -46.8386  -56.3962 C.3       4 UNK        -0.1967 
     54 N          31.7563  -48.5561  -54.6362 N.am      4 UNK        -0.4237 
     55 C          31.4398  -49.7025  -54.0124 C.2       3 UNK         0.4908 
     56 O          30.4713  -50.3939  -54.3282 O.2       3 UNK        -0.5102 
     57 CA         32.3135  -50.1540  -52.8280 C.3       3 UNK         0.0241 
     58 CB         33.3685  -51.1656  -53.3010 C.3       3 UNK        -0.1971 
     59 N          32.9761  -49.0514  -52.1295 N.am      3 UNK        -0.4139 
     60 C          32.3354  -48.1016  -51.4315 C.2       2 UNK         0.5016 
     61 O          31.1176  -48.0928  -51.2523 O.2       2 UNK        -0.5319 
     62 CA         33.1804  -46.9364  -50.8793 C.3       2 UNK         0.0286 
     63 CB         33.5665  -47.2064  -49.4167 C.3       2 UNK        -0.1963 
     64 N          34.3943  -46.6332  -51.6478 N.am      2 UNK        -0.4790 
     65 C          34.4591  -46.3979  -52.9687 C.2       1 UNK         0.5024 
     66 O          33.4779  -46.4200  -53.7078 O.2       1 UNK        -0.4888 
     67 H67        38.7582  -49.4439  -52.5801 H         1 UNK         0.0892 
     68 H68        37.8859  -49.2888  -51.0530 H         1 UNK         0.0892 
     69 H69        38.8900  -47.9592  -51.6355 H         1 UNK         0.0892 
     70 H70        37.6706  -46.2964  -52.4936 H         1 UNK         0.3107 
     71 H71        35.8388  -46.5945  -54.5763 H         1 UNK         0.0773 
     72 H72        37.2472  -44.4840  -53.7152 H         1 UNK         0.0680 
     73 H73        35.8057  -44.0873  -52.8362 H         1 UNK         0.0680 
     74 H74        34.7792  -42.2300  -53.6830 H         1 UNK         0.0650 
     75 H75        34.6657  -41.6888  -55.3307 H         1 UNK         0.0650 
     76 H76        32.9767  -43.6775  -52.7161 H         1 UNK         0.1397 
     77 H77        29.2529  -43.8393  -54.8562 H         1 UNK         0.1363 
     78 H78        32.7332  -42.2264  -56.7397 H         1 UNK         0.1355 
     79 H79        30.5962  -42.0171  -57.8239 H         1 UNK         0.0707 
     80 H80        29.1491  -42.1877  -56.8545 H         1 UNK         0.0707 
     81 H81        28.5488  -44.2466  -60.1572 H         1 UNK         0.1034 
     82 H82        28.7912  -42.6089  -59.6176 H         1 UNK         0.1034 
     83 H83        26.9301  -42.7585  -58.0373 H         1 UNK         0.0482 
     84 H84        25.1905  -44.9627  -60.1338 H         1 UNK         0.3460 
     85 H85        24.6126  -43.7331  -61.2337 H         1 UNK         0.3460 
     86 H86        27.2865  -45.5482  -58.1696 H         1 UNK         0.2989 
     87 H87        25.6784  -46.3468  -55.7672 H         1 UNK         0.0559 
     88 H88        23.7546  -47.8614  -56.2983 H         1 UNK         0.0848 
     89 H89        23.3919  -46.8925  -57.7277 H         1 UNK         0.0848 
     90 H90        23.2576  -46.1879  -56.1252 H         1 UNK         0.0848 
     91 H91        26.9775  -47.7295  -56.8935 H         1 UNK         0.3144 
     92 H92        26.7920  -49.4076  -59.9978 H         1 UNK         0.0727 
     93 H93        29.1543  -48.6616  -60.1790 H         1 UNK         0.0790 
     94 H94        28.8698  -47.3791  -59.0056 H         1 UNK         0.0790 
     95 H95        28.0611  -47.3438  -60.5667 H         1 UNK         0.0790 
     96 H96        28.2055  -49.2130  -57.3540 H         1 UNK         0.3215 
     97 H97        27.7959  -52.7520  -56.8811 H         1 UNK         0.0863 
     98 H98        30.2248  -52.5517  -56.4443 H         1 UNK         0.0808 
     99 H99        30.2735  -50.9904  -57.2580 H         1 UNK         0.0808 
    100 H100       29.9052  -52.4481  -58.1684 H         1 UNK         0.0808 
    101 H101       28.9206  -50.7962  -55.1598 H         1 UNK         0.3118 
    102 H102       25.9590  -50.4346  -53.1461 H         1 UNK         0.0546 
    103 H103       27.1259  -52.5415  -52.5624 H         1 UNK         0.0828 
    104 H104       27.6495  -51.2297  -51.5195 H         1 UNK         0.0828 
    105 H105       28.6905  -51.7868  -52.8269 H         1 UNK         0.0828 
    106 H106       28.7164  -49.3568  -53.4250 H         1 UNK         0.3005 
    107 H107       27.5551  -46.1600  -54.2911 H         1 UNK         0.1257 
    108 H108       28.8392  -46.7300  -51.5658 H         1 UNK         0.0775 
    109 H109       27.1830  -46.2214  -51.7006 H         1 UNK         0.0775 
    110 H110       30.8170  -44.0129  -51.4963 H         1 UNK         0.0840 
    111 H111       30.7647  -45.5243  -52.3656 H         1 UNK         0.0840 
    112 H112       30.1430  -47.1244  -53.5371 H         1 UNK         0.2987 
    113 H113       30.9521  -48.7977  -56.5326 H         1 UNK         0.0785 
    114 H114       31.8121  -45.9700  -55.7367 H         1 UNK         0.0798 
    115 H115       31.3374  -46.5251  -57.3346 H         1 UNK         0.0798 
    116 H116       32.8264  -47.1120  -56.6157 H         1 UNK         0.0798 
    117 H117       32.5254  -47.9899  -54.2872 H         1 UNK         0.3079 
    118 H118       31.6565  -50.6547  -52.1136 H         1 UNK         0.0794 
    119 H119       34.0671  -50.7176  -54.0092 H         1 UNK         0.0786 
    120 H120       32.8995  -52.0163  -53.7979 H         1 UNK         0.0786 
    121 H121       33.9464  -51.5576  -52.4639 H         1 UNK         0.0786 
    122 H122       33.9779  -48.9673  -52.2567 H         1 UNK         0.3032 
    123 H123       32.5531  -46.0444  -50.9037 H         1 UNK         0.1094 
    124 H124       34.2310  -48.0669  -49.3269 H         1 UNK         0.0794 
    125 H125       34.0667  -46.3462  -48.9713 H         1 UNK         0.0794 
    126 H126       32.6827  -47.4126  -48.8110 H         1 UNK         0.0794 
    127 H127       35.2602  -46.6147  -51.1284 H         1 UNK         0.3016 
@<TRIPOS>BOND
     1    1    2 1    
     2    1   67 1    
     3    1   68 1    
     4    1   69 1    
     5    2    3 2    
     6    2    4 am   BACKBONE|DICT|INTERRES
     7    4    5 1    
     8    4   70 1    
     9    5    6 1    
    10    5   65 1    
    11    5   71 1    
    12    6    7 1    
    13    6   72 1    
    14    6   73 1    
    15    7    8 1    
    16    8    9 1    
    17    8   74 1    
    18    8   75 1    
    19    9   10 ar   
    20    9   14 ar   
    21   10   11 ar   
    22   10   76 1    
    23   11   12 ar   
    24   11   48 1    
    25   12   13 ar   
    26   12   77 1    
    27   13   14 ar   
    28   13   15 1    
    29   14   78 1    
    30   15   16 1    
    31   15   79 1    
    32   15   80 1    
    33   16   17 1    
    34   17   18 1    
    35   17   81 1    
    36   17   82 1    
    37   18   19 1    
    38   18   22 1    
    39   18   83 1    
    40   19   20 am   BACKBONE|DICT|INTERRES
    41   19   21 2    
    42   20   84 1    
    43   20   85 1    
    44   22   23 am   BACKBONE|DICT|INTERRES
    45   22   86 1    
    46   23   24 2    
    47   23   25 1    
    48   25   26 1    
    49   25   27 1    
    50   25   87 1    
    51   26   88 1    
    52   26   89 1    
    53   26   90 1    
    54   27   28 am   BACKBONE|DICT|INTERRES
    55   27   91 1    
    56   28   29 2    
    57   28   30 1    
    58   30   31 1    
    59   30   32 1    
    60   30   92 1    
    61   31   93 1    
    62   31   94 1    
    63   31   95 1    
    64   32   33 am   BACKBONE|DICT|INTERRES
    65   32   96 1    
    66   33   34 2    
    67   33   35 1    
    68   35   36 1    
    69   35   37 1    
    70   35   97 1    
    71   36   98 1    
    72   36   99 1    
    73   36  100 1    
    74   37   38 am   BACKBONE|DICT|INTERRES
    75   37  101 1    
    76   38   39 2    
    77   38   40 1    
    78   40   41 1    
    79   40   42 1    
    80   40  102 1    
    81   41  103 1    
    82   41  104 1    
    83   41  105 1    
    84   42   43 am   BACKBONE|DICT|INTERRES
    85   42  106 1    
    86   43   44 2    
    87   43   45 1    
    88   45   46 1    
    89   45   49 1    
    90   45  107 1    
    91   46   47 1    
    92   46  108 1    
    93   46  109 1    
    94   47   48 1    
    95   48  110 1    
    96   48  111 1    
    97   49   50 am   BACKBONE|DICT|INTERRES
    98   49  112 1    
    99   50   51 2    
   100   50   52 1    
   101   52   53 1    
   102   52   54 1    
   103   52  113 1    
   104   53  114 1    
   105   53  115 1    
   106   53  116 1    
   107   54   55 am   BACKBONE|DICT|INTERRES
   108   54  117 1    
   109   55   56 2    
   110   55   57 1    
   111   57   58 1    
   112   57   59 1    
   113   57  118 1    
   114   58  119 1    
   115   58  120 1    
   116   58  121 1    
   117   59   60 am   BACKBONE|DICT|INTERRES
   118   59  122 1    
   119   60   61 2    
   120   60   62 1    
   121   62   63 1    
   122   62   64 1    
   123   62  123 1    
   124   63  124 1    
   125   63  125 1    
   126   63  126 1    
   127   64   65 am   BACKBONE|DICT|INTERRES
   128   64  127 1    
   129   65   66 2    
@<TRIPOS>SUBSTRUCTURE
     1 UNK         1 GROUP             0       ****    0 ROOT    
