@<TRIPOS>MOLECULE
3R134
127   129    1
SMALL
USER_CHARGES


@<TRIPOS>ATOM
      1 CA         36.4097  -44.3335  -51.5177 C.3       0 UNK        -0.1968 
      2 C          36.6647  -45.2101  -52.7351 C.2       0 UNK         0.4852 
      3 O          37.4781  -44.8517  -53.5880 O.2       0 UNK        -0.5359 
      4 N          35.9771  -46.3522  -52.8188 N.am      1 UNK        -0.4300 
      5 CA         36.0594  -47.3292  -53.9025 C.3       1 UNK         0.0863 
      6 C6         35.4043  -46.8370  -55.2241 C.3       11 UNK        -0.0953 
      7 S7         33.6459  -46.3685  -55.0654 S.3       11 UNK        -0.2369 
      8 C8         33.7189  -44.5807  -55.3828 C.3       11 UNK         0.0226 
      9 C9         32.3311  -43.9581  -55.3526 C.ar      11 UNK        -0.0699 
     10 C10        31.9136  -43.2052  -54.2514 C.ar      11 UNK        -0.0804 
     11 C11        30.6390  -42.6286  -54.2272 C.ar      11 UNK        -0.0871 
     12 C12        29.7848  -42.7969  -55.3227 C.ar      11 UNK        -0.1008 
     13 C13        30.1878  -43.5591  -56.4235 C.ar      11 UNK        -0.0735 
     14 C14        31.4624  -44.1333  -56.4334 C.ar      11 UNK        -0.0945 
     15 C15        29.2505  -43.7773  -57.6013 C.3       11 UNK         0.0169 
     16 S16        28.1340  -45.1798  -57.2937 S.3       11 UNK        -0.2669 
     17 C17        26.6857  -44.3578  -56.5244 C.3       11 UNK        -0.0850 
     18 CA         25.3464  -44.6786  -57.2404 C.3       10 UNK         0.0855 
     19 C          25.1692  -43.8317  -58.5365 C.2       10 UNK         0.5543 
     20 N          25.1303  -44.4160  -59.7285 N.am      10 UNK        -0.7343 
     21 O          25.0551  -42.6115  -58.4525 O.2       10 UNK        -0.5027 
     22 N          25.2008  -46.1277  -57.4091 N.am      10 UNK        -0.4495 
     23 C          24.0959  -46.8022  -57.7405 C.2       10 UNK         0.4903 
     24 O          22.9708  -46.3037  -57.7843 O.2       10 UNK        -0.4860 
     25 CA         24.3141  -48.2884  -58.1030 C.3       9 UNK         0.0227 
     26 CB         23.2179  -48.8391  -59.0391 C.3       9 UNK        -0.1964 
     27 N          25.6580  -48.5545  -58.6495 N.am      9 UNK        -0.4231 
     28 C          26.2049  -48.0012  -59.7472 C.2       9 UNK         0.5014 
     29 O          25.5973  -47.2289  -60.4905 O.2       9 UNK        -0.5270 
     30 CA         27.6908  -48.2980  -60.0153 C.3       8 UNK         0.0284 
     31 CB         28.3449  -47.2484  -60.9348 C.3       8 UNK        -0.1977 
     32 N          28.4332  -48.3476  -58.7548 N.am      8 UNK        -0.4342 
     33 C          29.1352  -49.3957  -58.3110 C.2       8 UNK         0.5039 
     34 O          29.2969  -50.4387  -58.9461 O.2       8 UNK        -0.5547 
     35 CA         29.7393  -49.2684  -56.9019 C.3       7 UNK         0.0281 
     36 CB         31.0926  -48.5432  -56.9738 C.3       7 UNK        -0.1963 
     37 N          28.8896  -48.5892  -55.9142 N.am      7 UNK        -0.4444 
     38 C          27.6113  -48.8838  -55.6130 C.2       7 UNK         0.5104 
     39 O          26.9419  -49.7123  -56.2311 O.2       7 UNK        -0.5100 
     40 CA         26.9469  -48.1292  -54.4446 C.3       6 UNK         0.0396 
     41 CB         26.3476  -49.0995  -53.4118 C.3       6 UNK        -0.1801 
     42 N          27.8903  -47.2337  -53.7848 N.am      6 UNK        -0.4747 
     43 C          27.6347  -46.0547  -53.2150 C.2       6 UNK         0.5012 
     44 O          26.4977  -45.6074  -53.0570 O.2       6 UNK        -0.5003 
     45 CA         28.8720  -45.2381  -52.7709 C.3       5 UNK         0.0782 
     46 C46        28.4927  -43.9180  -52.0476 C.3       11 UNK        -0.0868 
     47 S47        29.9422  -42.9203  -51.5557 S.3       11 UNK        -0.2515 
     48 C48        30.1811  -41.8422  -53.0068 C.3       11 UNK         0.0199 
     49 N          29.8458  -46.0364  -52.0129 N.am      5 UNK        -0.4607 
     50 C          30.6745  -46.9531  -52.5294 C.2       4 UNK         0.5031 
     51 O          30.6532  -47.2767  -53.7193 O.2       4 UNK        -0.5119 
     52 CA         31.6752  -47.6298  -51.5715 C.3       4 UNK         0.0263 
     53 CB         31.2976  -47.5067  -50.0778 C.3       4 UNK        -0.1967 
     54 N          31.9267  -49.0333  -51.9196 N.am      4 UNK        -0.4237 
     55 C          31.0226  -50.0216  -52.0310 C.2       3 UNK         0.4908 
     56 O          29.8184  -49.8714  -51.8159 O.2       3 UNK        -0.5102 
     57 CA         31.5356  -51.4330  -52.3930 C.3       3 UNK         0.0241 
     58 CB         30.6413  -52.1225  -53.4474 C.3       3 UNK        -0.1971 
     59 N          32.9604  -51.4901  -52.7577 N.am      3 UNK        -0.4139 
     60 C          33.5404  -51.0200  -53.8714 C.2       2 UNK         0.5016 
     61 O          32.9339  -50.5408  -54.8294 O.2       2 UNK        -0.5319 
     62 CA         35.0788  -51.0604  -53.9054 C.3       2 UNK         0.0286 
     63 CB         35.5776  -52.0547  -54.9667 C.3       2 UNK        -0.1963 
     64 N          35.6400  -49.7334  -54.1789 N.am      2 UNK        -0.4790 
     65 C          35.4684  -48.6586  -53.3962 C.2       1 UNK         0.5024 
     66 O          34.8719  -48.6939  -52.3140 O.2       1 UNK        -0.4888 
     67 H67        37.3324  -44.1944  -50.9550 H         1 UNK         0.0892 
     68 H68        35.6671  -44.7695  -50.8496 H         1 UNK         0.0892 
     69 H69        36.0494  -43.3540  -51.8306 H         1 UNK         0.0892 
     70 H70        35.3541  -46.6425  -52.0748 H         1 UNK         0.3107 
     71 H71        37.1179  -47.5177  -54.0937 H         1 UNK         0.0773 
     72 H72        35.9672  -45.9881  -55.6138 H         1 UNK         0.0680 
     73 H73        35.4781  -47.6030  -55.9976 H         1 UNK         0.0680 
     74 H74        34.3690  -44.1105  -54.6435 H         1 UNK         0.0650 
     75 H75        34.1755  -44.4042  -56.3578 H         1 UNK         0.0650 
     76 H76        32.5740  -43.0778  -53.4045 H         1 UNK         0.1397 
     77 H77        28.7984  -42.3547  -55.3097 H         1 UNK         0.1363 
     78 H78        31.7787  -44.7281  -57.2795 H         1 UNK         0.1355 
     79 H79        29.8290  -43.9887  -58.5019 H         1 UNK         0.0707 
     80 H80        28.6830  -42.8709  -57.8171 H         1 UNK         0.0707 
     81 H81        26.8403  -43.2798  -56.4560 H         1 UNK         0.1034 
     82 H82        26.6214  -44.6965  -55.4932 H         1 UNK         0.1034 
     83 H83        24.5403  -44.3615  -56.5762 H         1 UNK         0.0482 
     84 H84        25.0100  -43.8439  -60.5484 H         1 UNK         0.3460 
     85 H85        25.2330  -45.4204  -59.8314 H         1 UNK         0.3460 
     86 H86        26.0737  -46.6301  -57.4222 H         1 UNK         0.2989 
     87 H87        24.2549  -48.8403  -57.1638 H         1 UNK         0.0559 
     88 H88        23.1712  -48.2870  -59.9783 H         1 UNK         0.0848 
     89 H89        22.2341  -48.7688  -58.5735 H         1 UNK         0.0848 
     90 H90        23.3882  -49.8893  -59.2751 H         1 UNK         0.0848 
     91 H91        26.2406  -49.1585  -58.0756 H         1 UNK         0.3144 
     92 H92        27.7252  -49.2643  -60.5223 H         1 UNK         0.0727 
     93 H93        29.3957  -47.4781  -61.1119 H         1 UNK         0.0790 
     94 H94        28.2884  -46.2467  -60.5060 H         1 UNK         0.0790 
     95 H95        27.8538  -47.2168  -61.9082 H         1 UNK         0.0790 
     96 H96        28.3815  -47.5258  -58.1665 H         1 UNK         0.3215 
     97 H97        29.9140  -50.2798  -56.5297 H         1 UNK         0.0863 
     98 H98        31.5894  -48.5374  -56.0034 H         1 UNK         0.0808 
     99 H99        30.9828  -47.5066  -57.2951 H         1 UNK         0.0808 
    100 H100       31.7672  -49.0368  -57.6745 H         1 UNK         0.0808 
    101 H101       29.3674  -47.8864  -55.3649 H         1 UNK         0.3118 
    102 H102       26.1395  -47.5349  -54.8772 H         1 UNK         0.0546 
    103 H103       25.6223  -49.7701  -53.8742 H         1 UNK         0.0828 
    104 H104       25.8294  -48.5627  -52.6173 H         1 UNK         0.0828 
    105 H105       27.1194  -49.7175  -52.9507 H         1 UNK         0.0828 
    106 H106       28.8671  -47.5201  -53.7892 H         1 UNK         0.3005 
    107 H107       29.3614  -44.9618  -53.7056 H         1 UNK         0.1257 
    108 H108       27.9175  -44.1351  -51.1457 H         1 UNK         0.0775 
    109 H109       27.8453  -43.3058  -52.6785 H         1 UNK         0.0775 
    110 H110       29.2583  -41.2970  -53.2117 H         1 UNK         0.0840 
    111 H111       30.9322  -41.0886  -52.7659 H         1 UNK         0.0840 
    112 H112       29.9026  -45.8352  -51.0257 H         1 UNK         0.2987 
    113 H113       32.6226  -47.1100  -51.7200 H         1 UNK         0.0785 
    114 H114       30.3127  -47.9279  -49.8714 H         1 UNK         0.0798 
    115 H115       31.2934  -46.4666  -49.7497 H         1 UNK         0.0798 
    116 H116       32.0177  -48.0299  -49.4485 H         1 UNK         0.0798 
    117 H117       32.8927  -49.2401  -52.1477 H         1 UNK         0.3079 
    118 H118       31.4507  -52.0144  -51.4738 H         1 UNK         0.0794 
    119 H119       30.5715  -51.5389  -54.3656 H         1 UNK         0.0786 
    120 H120       29.6249  -52.2497  -53.0731 H         1 UNK         0.0786 
    121 H121       31.0174  -53.1128  -53.7038 H         1 UNK         0.0786 
    122 H122       33.5640  -51.8583  -52.0347 H         1 UNK         0.3032 
    123 H123       35.4512  -51.3842  -52.9308 H         1 UNK         0.1094 
    124 H124       36.6654  -52.1255  -54.9667 H         1 UNK         0.0794 
    125 H125       35.1885  -53.0559  -54.7757 H         1 UNK         0.0794 
    126 H126       35.2585  -51.7681  -55.9698 H         1 UNK         0.0794 
    127 H127       36.1149  -49.6212  -55.0629 H         1 UNK         0.3016 
@<TRIPOS>BOND
     1    1    2 1    
     2    1   67 1    
     3    1   68 1    
     4    1   69 1    
     5    2    3 2    
     6    2    4 am   BACKBONE|DICT|INTERRES
     7    4    5 1    
     8    4   70 1    
     9    5    6 1    
    10    5   65 1    
    11    5   71 1    
    12    6    7 1    
    13    6   72 1    
    14    6   73 1    
    15    7    8 1    
    16    8    9 1    
    17    8   74 1    
    18    8   75 1    
    19    9   10 ar   
    20    9   14 ar   
    21   10   11 ar   
    22   10   76 1    
    23   11   12 ar   
    24   11   48 1    
    25   12   13 ar   
    26   12   77 1    
    27   13   14 ar   
    28   13   15 1    
    29   14   78 1    
    30   15   16 1    
    31   15   79 1    
    32   15   80 1    
    33   16   17 1    
    34   17   18 1    
    35   17   81 1    
    36   17   82 1    
    37   18   19 1    
    38   18   22 1    
    39   18   83 1    
    40   19   20 am   BACKBONE|DICT|INTERRES
    41   19   21 2    
    42   20   84 1    
    43   20   85 1    
    44   22   23 am   BACKBONE|DICT|INTERRES
    45   22   86 1    
    46   23   24 2    
    47   23   25 1    
    48   25   26 1    
    49   25   27 1    
    50   25   87 1    
    51   26   88 1    
    52   26   89 1    
    53   26   90 1    
    54   27   28 am   BACKBONE|DICT|INTERRES
    55   27   91 1    
    56   28   29 2    
    57   28   30 1    
    58   30   31 1    
    59   30   32 1    
    60   30   92 1    
    61   31   93 1    
    62   31   94 1    
    63   31   95 1    
    64   32   33 am   BACKBONE|DICT|INTERRES
    65   32   96 1    
    66   33   34 2    
    67   33   35 1    
    68   35   36 1    
    69   35   37 1    
    70   35   97 1    
    71   36   98 1    
    72   36   99 1    
    73   36  100 1    
    74   37   38 am   BACKBONE|DICT|INTERRES
    75   37  101 1    
    76   38   39 2    
    77   38   40 1    
    78   40   41 1    
    79   40   42 1    
    80   40  102 1    
    81   41  103 1    
    82   41  104 1    
    83   41  105 1    
    84   42   43 am   BACKBONE|DICT|INTERRES
    85   42  106 1    
    86   43   44 2    
    87   43   45 1    
    88   45   46 1    
    89   45   49 1    
    90   45  107 1    
    91   46   47 1    
    92   46  108 1    
    93   46  109 1    
    94   47   48 1    
    95   48  110 1    
    96   48  111 1    
    97   49   50 am   BACKBONE|DICT|INTERRES
    98   49  112 1    
    99   50   51 2    
   100   50   52 1    
   101   52   53 1    
   102   52   54 1    
   103   52  113 1    
   104   53  114 1    
   105   53  115 1    
   106   53  116 1    
   107   54   55 am   BACKBONE|DICT|INTERRES
   108   54  117 1    
   109   55   56 2    
   110   55   57 1    
   111   57   58 1    
   112   57   59 1    
   113   57  118 1    
   114   58  119 1    
   115   58  120 1    
   116   58  121 1    
   117   59   60 am   BACKBONE|DICT|INTERRES
   118   59  122 1    
   119   60   61 2    
   120   60   62 1    
   121   62   63 1    
   122   62   64 1    
   123   62  123 1    
   124   63  124 1    
   125   63  125 1    
   126   63  126 1    
   127   64   65 am   BACKBONE|DICT|INTERRES
   128   64  127 1    
   129   65   66 2    
@<TRIPOS>SUBSTRUCTURE
     1 UNK         1 GROUP             0       ****    0 ROOT    
