@<TRIPOS>MOLECULE
3R134
127   129    1
SMALL
USER_CHARGES


@<TRIPOS>ATOM
      1 CA         35.9724  -47.4111  -51.2488 C.3       0 UNK        -0.1968 
      2 C          34.7093  -47.5957  -52.0746 C.2       0 UNK         0.4852 
      3 O          34.6051  -48.5772  -52.8134 O.2       0 UNK        -0.5359 
      4 N          33.7439  -46.6724  -51.9403 N.am      1 UNK        -0.4300 
      5 CA         32.4772  -46.6125  -52.6891 C.3       1 UNK         0.0863 
      6 C6         31.5945  -45.4068  -52.2677 C.3       11 UNK        -0.0953 
      7 S7         32.4918  -43.8167  -52.2511 S.3       11 UNK        -0.2369 
      8 C8         31.2250  -42.6471  -52.8649 C.3       11 UNK         0.0226 
      9 C9         30.9648  -42.6575  -54.3745 C.ar      11 UNK        -0.0699 
     10 C10        31.7850  -43.3429  -55.2790 C.ar      11 UNK        -0.0804 
     11 C11        31.5197  -43.3193  -56.6522 C.ar      11 UNK        -0.0871 
     12 C12        30.4504  -42.5591  -57.1287 C.ar      11 UNK        -0.1008 
     13 C13        29.6241  -41.8605  -56.2462 C.ar      11 UNK        -0.0735 
     14 C14        29.8830  -41.9216  -54.8723 C.ar      11 UNK        -0.0945 
     15 C15        28.4772  -41.0106  -56.7781 C.3       11 UNK         0.0169 
     16 S16        26.9894  -41.9990  -57.1313 S.3       11 UNK        -0.2669 
     17 C17        27.2480  -42.4630  -58.8814 C.3       11 UNK        -0.0850 
     18 CA         26.1887  -43.4705  -59.4017 C.3       10 UNK         0.0855 
     19 C          26.3529  -43.7209  -60.9294 C.2       10 UNK         0.5543 
     20 N          26.6092  -44.9423  -61.3818 N.am      10 UNK        -0.7343 
     21 O          26.2399  -42.7867  -61.7191 O.2       10 UNK        -0.5027 
     22 N          26.1680  -44.6868  -58.5755 N.am      10 UNK        -0.4495 
     23 C          25.1328  -45.5248  -58.4431 C.2       10 UNK         0.4903 
     24 O          24.0812  -45.4240  -59.0756 O.2       10 UNK        -0.4860 
     25 CA         25.2874  -46.6628  -57.4150 C.3       9 UNK         0.0227 
     26 CB         25.5671  -47.9992  -58.1190 C.3       9 UNK        -0.1964 
     27 N          26.3361  -46.4127  -56.4194 N.am      9 UNK        -0.4231 
     28 C          26.2717  -45.4719  -55.4658 C.2       9 UNK         0.5014 
     29 O          25.2859  -44.7564  -55.2746 O.2       9 UNK        -0.5270 
     30 CA         27.5273  -45.3228  -54.5880 C.3       8 UNK         0.0284 
     31 CB         27.4249  -44.1657  -53.5719 C.3       8 UNK        -0.1977 
     32 N          27.8707  -46.5805  -53.9180 N.am      8 UNK        -0.4342 
     33 C          27.1177  -47.2747  -53.0509 C.2       8 UNK         0.5039 
     34 O          26.0059  -46.9270  -52.6490 O.2       8 UNK        -0.5547 
     35 CA         27.7479  -48.5798  -52.5420 C.3       7 UNK         0.0281 
     36 CB         26.8017  -49.4344  -51.6712 C.3       7 UNK        -0.1963 
     37 N          28.3419  -49.3659  -53.6317 N.am      7 UNK        -0.4444 
     38 C          27.7016  -49.9656  -54.6462 C.2       7 UNK         0.5104 
     39 O          26.4772  -49.9810  -54.7803 O.2       7 UNK        -0.5100 
     40 CA         28.6022  -50.6543  -55.6934 C.3       6 UNK         0.0396 
     41 CB         27.8270  -51.1264  -56.9408 C.3       6 UNK        -0.1801 
     42 N          29.7631  -49.8496  -56.0962 N.am      6 UNK        -0.4747 
     43 C          29.7627  -48.6000  -56.5905 C.2       6 UNK         0.5012 
     44 O          28.7439  -47.9193  -56.7287 O.2       6 UNK        -0.5003 
     45 CA         31.1292  -48.0009  -56.9790 C.3       5 UNK         0.0782 
     46 C46        31.2165  -46.4908  -56.6330 C.3       11 UNK        -0.0868 
     47 S47        32.8435  -45.7593  -57.0396 S.3       11 UNK        -0.2515 
     48 C48        32.3841  -44.0995  -57.6373 C.3       11 UNK         0.0199 
     49 N          32.2360  -48.7611  -56.3821 N.am      5 UNK        -0.4607 
     50 C          33.2436  -49.2950  -57.0832 C.2       4 UNK         0.5031 
     51 O          33.2580  -49.3820  -58.3116 O.2       4 UNK        -0.5119 
     52 CA         34.4660  -49.7776  -56.2909 C.3       4 UNK         0.0263 
     53 CB         35.4732  -48.6275  -56.1257 C.3       4 UNK        -0.1967 
     54 N          34.1361  -50.3132  -54.9708 N.am      4 UNK        -0.4237 
     55 C          33.6432  -51.5409  -54.7629 C.2       3 UNK         0.4908 
     56 O          33.3056  -52.3074  -55.6655 O.2       3 UNK        -0.5102 
     57 CA         33.5296  -52.0000  -53.3054 C.3       3 UNK         0.0241 
     58 CB         34.9208  -52.3104  -52.7265 C.3       3 UNK        -0.1971 
     59 N          32.8787  -50.9861  -52.4786 N.am      3 UNK        -0.4139 
     60 C          31.5983  -51.0359  -52.0919 C.2       2 UNK         0.5016 
     61 O          30.8122  -51.9262  -52.4164 O.2       2 UNK        -0.5319 
     62 CA         31.1017  -49.9001  -51.1822 C.3       2 UNK         0.0286 
     63 CB         31.3163  -50.2669  -49.7053 C.3       2 UNK        -0.1963 
     64 N          31.7283  -48.6018  -51.4494 N.am      2 UNK        -0.4790 
     65 C          31.6503  -47.9123  -52.5976 C.2       1 UNK         0.5024 
     66 O          30.9824  -48.2737  -53.5662 O.2       1 UNK        -0.4888 
     67 H67        36.8387  -47.3357  -51.9054 H         1 UNK         0.0892 
     68 H68        35.9317  -46.5117  -50.6348 H         1 UNK         0.0892 
     69 H69        36.1173  -48.2671  -50.5904 H         1 UNK         0.0892 
     70 H70        33.9006  -45.8893  -51.3210 H         1 UNK         0.3107 
     71 H71        32.7476  -46.4834  -53.7392 H         1 UNK         0.0773 
     72 H72        31.1821  -45.5587  -51.2682 H         1 UNK         0.0680 
     73 H73        30.7389  -45.3196  -52.9408 H         1 UNK         0.0680 
     74 H74        30.2933  -42.8300  -52.3285 H         1 UNK         0.0650 
     75 H75        31.5430  -41.6412  -52.5881 H         1 UNK         0.0650 
     76 H76        32.6351  -43.9072  -54.9258 H         1 UNK         0.1397 
     77 H77        30.2680  -42.5053  -58.1920 H         1 UNK         0.1363 
     78 H78        29.2481  -41.3775  -54.1862 H         1 UNK         0.1355 
     79 H79        28.7903  -40.4732  -57.6746 H         1 UNK         0.0707 
     80 H80        28.2146  -40.2445  -56.0469 H         1 UNK         0.0707 
     81 H81        28.2445  -42.8858  -59.0024 H         1 UNK         0.1034 
     82 H82        27.2291  -41.5472  -59.4758 H         1 UNK         0.1034 
     83 H83        25.2126  -42.9939  -59.2909 H         1 UNK         0.0482 
     84 H84        26.7093  -45.0930  -62.3733 H         1 UNK         0.3460 
     85 H85        26.6925  -45.7142  -60.7405 H         1 UNK         0.3460 
     86 H86        26.9869  -44.8502  -58.0106 H         1 UNK         0.2989 
     87 H87        24.3365  -46.7521  -56.8860 H         1 UNK         0.0559 
     88 H88        24.8111  -48.2114  -58.8763 H         1 UNK         0.0848 
     89 H89        25.5493  -48.8243  -57.4069 H         1 UNK         0.0848 
     90 H90        26.5388  -48.0013  -58.6145 H         1 UNK         0.0848 
     91 H91        27.1812  -46.9782  -56.4950 H         1 UNK         0.3144 
     92 H92        28.3541  -45.0910  -55.2622 H         1 UNK         0.0727 
     93 H93        28.3380  -44.0727  -52.9859 H         1 UNK         0.0790 
     94 H94        26.5941  -44.3021  -52.8792 H         1 UNK         0.0790 
     95 H95        27.2666  -43.2158  -54.0840 H         1 UNK         0.0790 
     96 H96        28.7428  -47.0027  -54.2059 H         1 UNK         0.3215 
     97 H97        28.5678  -48.2552  -51.9022 H         1 UNK         0.0863 
     98 H98        27.2959  -50.3393  -51.3181 H         1 UNK         0.0808 
     99 H99        25.9038  -49.7310  -52.2138 H         1 UNK         0.0808 
    100 H100       26.4762  -48.8784  -50.7912 H         1 UNK         0.0808 
    101 H101       29.3568  -49.3432  -53.6764 H         1 UNK         0.3118 
    102 H102       29.0025  -51.5423  -55.2017 H         1 UNK         0.0546 
    103 H103       27.4170  -50.2879  -57.5023 H         1 UNK         0.0828 
    104 H104       26.9949  -51.7762  -56.6671 H         1 UNK         0.0828 
    105 H105       28.4698  -51.6939  -57.6133 H         1 UNK         0.0828 
    106 H106       30.6617  -50.3038  -56.0082 H         1 UNK         0.3005 
    107 H107       31.1672  -48.0836  -58.0674 H         1 UNK         0.1257 
    108 H108       30.4416  -45.9387  -57.1682 H         1 UNK         0.0775 
    109 H109       31.0281  -46.3251  -55.5713 H         1 UNK         0.0775 
    110 H110       33.2937  -43.5313  -57.8356 H         1 UNK         0.0840 
    111 H111       31.8722  -44.2105  -58.5945 H         1 UNK         0.0840 
    112 H112       32.2859  -48.7455  -55.3721 H         1 UNK         0.2987 
    113 H113       34.9474  -50.5662  -56.8739 H         1 UNK         0.0785 
    114 H114       36.3815  -48.9633  -55.6252 H         1 UNK         0.0798 
    115 H115       35.0542  -47.8056  -55.5431 H         1 UNK         0.0798 
    116 H116       35.7666  -48.2221  -57.0951 H         1 UNK         0.0798 
    117 H117       34.3728  -49.7274  -54.1700 H         1 UNK         0.3079 
    118 H118       32.9515  -52.9268  -53.2927 H         1 UNK         0.0794 
    119 H119       35.4384  -53.0563  -53.3313 H         1 UNK         0.0786 
    120 H120       34.8458  -52.7099  -51.7150 H         1 UNK         0.0786 
    121 H121       35.5545  -51.4231  -52.6878 H         1 UNK         0.0786 
    122 H122       33.4332  -50.1740  -52.2304 H         1 UNK         0.3032 
    123 H123       30.0296  -49.8117  -51.3460 H         1 UNK         0.1094 
    124 H124       30.8781  -49.5202  -49.0428 H         1 UNK         0.0794 
    125 H125       30.8458  -51.2223  -49.4679 H         1 UNK         0.0794 
    126 H126       32.3754  -50.3557  -49.4595 H         1 UNK         0.0794 
    127 H127       32.3055  -48.2205  -50.7133 H         1 UNK         0.3016 
@<TRIPOS>BOND
     1    1    2 1    
     2    1   67 1    
     3    1   68 1    
     4    1   69 1    
     5    2    3 2    
     6    2    4 am   BACKBONE|DICT|INTERRES
     7    4    5 1    
     8    4   70 1    
     9    5    6 1    
    10    5   65 1    
    11    5   71 1    
    12    6    7 1    
    13    6   72 1    
    14    6   73 1    
    15    7    8 1    
    16    8    9 1    
    17    8   74 1    
    18    8   75 1    
    19    9   10 ar   
    20    9   14 ar   
    21   10   11 ar   
    22   10   76 1    
    23   11   12 ar   
    24   11   48 1    
    25   12   13 ar   
    26   12   77 1    
    27   13   14 ar   
    28   13   15 1    
    29   14   78 1    
    30   15   16 1    
    31   15   79 1    
    32   15   80 1    
    33   16   17 1    
    34   17   18 1    
    35   17   81 1    
    36   17   82 1    
    37   18   19 1    
    38   18   22 1    
    39   18   83 1    
    40   19   20 am   BACKBONE|DICT|INTERRES
    41   19   21 2    
    42   20   84 1    
    43   20   85 1    
    44   22   23 am   BACKBONE|DICT|INTERRES
    45   22   86 1    
    46   23   24 2    
    47   23   25 1    
    48   25   26 1    
    49   25   27 1    
    50   25   87 1    
    51   26   88 1    
    52   26   89 1    
    53   26   90 1    
    54   27   28 am   BACKBONE|DICT|INTERRES
    55   27   91 1    
    56   28   29 2    
    57   28   30 1    
    58   30   31 1    
    59   30   32 1    
    60   30   92 1    
    61   31   93 1    
    62   31   94 1    
    63   31   95 1    
    64   32   33 am   BACKBONE|DICT|INTERRES
    65   32   96 1    
    66   33   34 2    
    67   33   35 1    
    68   35   36 1    
    69   35   37 1    
    70   35   97 1    
    71   36   98 1    
    72   36   99 1    
    73   36  100 1    
    74   37   38 am   BACKBONE|DICT|INTERRES
    75   37  101 1    
    76   38   39 2    
    77   38   40 1    
    78   40   41 1    
    79   40   42 1    
    80   40  102 1    
    81   41  103 1    
    82   41  104 1    
    83   41  105 1    
    84   42   43 am   BACKBONE|DICT|INTERRES
    85   42  106 1    
    86   43   44 2    
    87   43   45 1    
    88   45   46 1    
    89   45   49 1    
    90   45  107 1    
    91   46   47 1    
    92   46  108 1    
    93   46  109 1    
    94   47   48 1    
    95   48  110 1    
    96   48  111 1    
    97   49   50 am   BACKBONE|DICT|INTERRES
    98   49  112 1    
    99   50   51 2    
   100   50   52 1    
   101   52   53 1    
   102   52   54 1    
   103   52  113 1    
   104   53  114 1    
   105   53  115 1    
   106   53  116 1    
   107   54   55 am   BACKBONE|DICT|INTERRES
   108   54  117 1    
   109   55   56 2    
   110   55   57 1    
   111   57   58 1    
   112   57   59 1    
   113   57  118 1    
   114   58  119 1    
   115   58  120 1    
   116   58  121 1    
   117   59   60 am   BACKBONE|DICT|INTERRES
   118   59  122 1    
   119   60   61 2    
   120   60   62 1    
   121   62   63 1    
   122   62   64 1    
   123   62  123 1    
   124   63  124 1    
   125   63  125 1    
   126   63  126 1    
   127   64   65 am   BACKBONE|DICT|INTERRES
   128   64  127 1    
   129   65   66 2    
@<TRIPOS>SUBSTRUCTURE
     1 UNK         1 GROUP             0       ****    0 ROOT    
