@<TRIPOS>MOLECULE
3R134
127   129    1
SMALL
USER_CHARGES


@<TRIPOS>ATOM
      1 CA         31.4099  -44.7151  -49.4832 C.3       0 UNK        -0.1968 
      2 C          32.8926  -44.5810  -49.7939 C.2       0 UNK         0.4852 
      3 O          33.7222  -44.7955  -48.9085 O.2       0 UNK        -0.5359 
      4 N          33.2319  -44.2120  -51.0367 N.am      1 UNK        -0.4300 
      5 CA         34.6115  -43.9851  -51.4890 C.3       1 UNK         0.0863 
      6 C6         34.6806  -43.1421  -52.7891 C.3       11 UNK        -0.0953 
      7 S7         33.7803  -41.5579  -52.6487 S.3       11 UNK        -0.2369 
      8 C8         33.0357  -41.3688  -54.3071 C.3       11 UNK         0.0226 
      9 C9         32.1610  -42.5459  -54.7295 C.ar      11 UNK        -0.0699 
     10 C10        31.1901  -43.0641  -53.8667 C.ar      11 UNK        -0.0804 
     11 C11        30.4331  -44.1770  -54.2402 C.ar      11 UNK        -0.0871 
     12 C12        30.6241  -44.7492  -55.5006 C.ar      11 UNK        -0.1008 
     13 C13        31.5629  -44.2199  -56.3926 C.ar      11 UNK        -0.0735 
     14 C14        32.3336  -43.1235  -55.9923 C.ar      11 UNK        -0.0945 
     15 C15        31.7939  -44.8324  -57.7748 C.3       11 UNK         0.0169 
     16 S16        30.3141  -45.5793  -58.5440 S.3       11 UNK        -0.2669 
     17 C17        29.2631  -44.1044  -58.7860 C.3       11 UNK        -0.0850 
     18 CA         27.7793  -44.4367  -59.1110 C.3       10 UNK         0.0855 
     19 C          27.5810  -44.9402  -60.5679 C.2       10 UNK         0.5543 
     20 N          27.0194  -46.1141  -60.8180 N.am      10 UNK        -0.7343 
     21 O          27.9176  -44.2232  -61.5076 O.2       10 UNK        -0.5027 
     22 N          27.1247  -45.2341  -58.0560 N.am      10 UNK        -0.4495 
     23 C          26.7003  -44.7116  -56.8953 C.2       10 UNK         0.4903 
     24 O          26.8041  -43.5148  -56.6199 O.2       10 UNK        -0.4860 
     25 CA         26.0823  -45.6611  -55.8443 C.3       9 UNK         0.0227 
     26 CB         25.1419  -44.9349  -54.8588 C.3       9 UNK        -0.1964 
     27 N          25.4326  -46.8531  -56.3964 N.am      9 UNK        -0.4231 
     28 C          24.4005  -46.8932  -57.2518 C.2       9 UNK         0.5014 
     29 O          23.8088  -45.8903  -57.6564 O.2       9 UNK        -0.5270 
     30 CA         23.9622  -48.2902  -57.7477 C.3       8 UNK         0.0284 
     31 CB         23.2113  -48.2182  -59.0942 C.3       8 UNK        -0.1977 
     32 N          25.0429  -49.2851  -57.8407 N.am      8 UNK        -0.4342 
     33 C          26.2121  -49.1606  -58.4854 C.2       8 UNK         0.5039 
     34 O          26.6039  -48.1076  -58.9905 O.2       8 UNK        -0.5547 
     35 CA         27.0997  -50.4164  -58.5328 C.3       7 UNK         0.0281 
     36 CB         28.3066  -50.2511  -59.4754 C.3       7 UNK        -0.1963 
     37 N          27.5744  -50.7462  -57.1896 N.am      7 UNK        -0.4444 
     38 C          26.8717  -51.4399  -56.2813 C.2       7 UNK         0.5104 
     39 O          25.7723  -51.9419  -56.5198 O.2       7 UNK        -0.5100 
     40 CA         27.4540  -51.5552  -54.8579 C.3       6 UNK         0.0396 
     41 CB         28.2357  -52.8686  -54.7047 C.3       6 UNK        -0.1801 
     42 N          28.3180  -50.4334  -54.4806 N.am      6 UNK        -0.4747 
     43 C          27.9360  -49.1462  -54.4407 C.2       6 UNK         0.5012 
     44 O          26.7752  -48.7762  -54.6215 O.2       6 UNK        -0.5003 
     45 CA         29.0340  -48.0822  -54.2267 C.3       5 UNK         0.0782 
     46 C46        28.9736  -47.5378  -52.7788 C.3       11 UNK        -0.0868 
     47 S47        30.1873  -46.2224  -52.4447 S.3       11 UNK        -0.2515 
     48 C48        29.4371  -44.7868  -53.2701 C.3       11 UNK         0.0199 
     49 N          30.3770  -48.5313  -54.6212 N.am      5 UNK        -0.4607 
     50 C          30.7110  -48.9583  -55.8496 C.2       4 UNK         0.5031 
     51 O          29.9211  -48.9789  -56.7915 O.2       4 UNK        -0.5119 
     52 CA         32.1315  -49.5073  -56.0727 C.3       4 UNK         0.0263 
     53 CB         32.9929  -48.4566  -56.7910 C.3       4 UNK        -0.1967 
     54 N          32.8263  -49.9403  -54.8581 N.am      4 UNK        -0.4237 
     55 C          32.4035  -50.8425  -53.9587 C.2       3 UNK         0.4908 
     56 O          31.3534  -51.4775  -54.0695 O.2       3 UNK        -0.5102 
     57 CA         33.2844  -51.0479  -52.7067 C.3       3 UNK         0.0241 
     58 CB         33.9866  -52.4145  -52.7631 C.3       3 UNK        -0.1971 
     59 N          34.2927  -49.9964  -52.4989 N.am      3 UNK        -0.4139 
     60 C          34.0149  -48.7078  -52.2534 C.2       2 UNK         0.5016 
     61 O          32.8680  -48.2777  -52.1066 O.2       2 UNK        -0.5319 
     62 CA         35.2015  -47.7327  -52.2451 C.3       2 UNK         0.0286 
     63 CB         35.9498  -47.7519  -53.5971 C.3       2 UNK        -0.1963 
     64 N          34.6835  -46.3930  -51.9823 N.am      2 UNK        -0.4790 
     65 C          35.3941  -45.3031  -51.6688 C.2       1 UNK         0.5024 
     66 O          36.6181  -45.3035  -51.5296 O.2       1 UNK        -0.4888 
     67 H67        31.1270  -45.7670  -49.4512 H         1 UNK         0.0892 
     68 H68        30.7939  -44.2153  -50.2303 H         1 UNK         0.0892 
     69 H69        31.1848  -44.2709  -48.5140 H         1 UNK         0.0892 
     70 H70        32.5140  -44.0580  -51.7297 H         1 UNK         0.3107 
     71 H71        35.1238  -43.4205  -50.7066 H         1 UNK         0.0773 
     72 H72        34.2918  -43.7168  -53.6311 H         1 UNK         0.0680 
     73 H73        35.7184  -42.9111  -53.0368 H         1 UNK         0.0680 
     74 H74        32.4308  -40.4614  -54.3178 H         1 UNK         0.0650 
     75 H75        33.8416  -41.2110  -55.0255 H         1 UNK         0.0650 
     76 H76        31.0446  -42.6156  -52.8936 H         1 UNK         0.1397 
     77 H77        30.0464  -45.6153  -55.7851 H         1 UNK         0.1363 
     78 H78        33.0784  -42.7221  -56.6661 H         1 UNK         0.1355 
     79 H79        32.5640  -45.5985  -57.6867 H         1 UNK         0.0707 
     80 H80        32.1878  -44.0786  -58.4584 H         1 UNK         0.0707 
     81 H81        29.7026  -43.4839  -59.5692 H         1 UNK         0.1034 
     82 H82        29.3016  -43.4958  -57.8817 H         1 UNK         0.1034 
     83 H83        27.2544  -43.4793  -59.1296 H         1 UNK         0.0482 
     84 H84        26.8946  -46.3916  -61.7776 H         1 UNK         0.3460 
     85 H85        26.7994  -46.7807  -60.0782 H         1 UNK         0.3460 
     86 H86        27.0009  -46.2231  -58.2473 H         1 UNK         0.2989 
     87 H87        26.9219  -46.0326  -55.2618 H         1 UNK         0.0559 
     88 H88        24.2961  -44.4760  -55.3716 H         1 UNK         0.0848 
     89 H89        25.6669  -44.1421  -54.3246 H         1 UNK         0.0848 
     90 H90        24.7484  -45.6204  -54.1083 H         1 UNK         0.0848 
     91 H91        25.8315  -47.7359  -56.0917 H         1 UNK         0.3144 
     92 H92        23.2649  -48.6673  -56.9984 H         1 UNK         0.0727 
     93 H93        22.8785  -49.2044  -59.4175 H         1 UNK         0.0790 
     94 H94        23.8410  -47.8016  -59.8814 H         1 UNK         0.0790 
     95 H95        22.3234  -47.5892  -59.0191 H         1 UNK         0.0790 
     96 H96        24.8609  -50.1795  -57.3972 H         1 UNK         0.3215 
     97 H97        26.4923  -51.2384  -58.9179 H         1 UNK         0.0863 
     98 H98        28.9217  -51.1505  -59.4963 H         1 UNK         0.0808 
     99 H99        28.9431  -49.4159  -59.1812 H         1 UNK         0.0808 
    100 H100       27.9760  -50.0586  -60.4968 H         1 UNK         0.0808 
    101 H101       28.4364  -50.2900  -56.9035 H         1 UNK         0.3118 
    102 H102       26.6141  -51.5724  -54.1606 H         1 UNK         0.0546 
    103 H103       27.6103  -53.7278  -54.9513 H         1 UNK         0.0828 
    104 H104       28.5854  -53.0060  -53.6813 H         1 UNK         0.0828 
    105 H105       29.1064  -52.8981  -55.3612 H         1 UNK         0.0828 
    106 H106       29.2971  -50.6497  -54.3269 H         1 UNK         0.3005 
    107 H107       28.7828  -47.2689  -54.9055 H         1 UNK         0.1257 
    108 H108       29.1601  -48.3434  -52.0660 H         1 UNK         0.0775 
    109 H109       27.9777  -47.1535  -52.5477 H         1 UNK         0.0775 
    110 H110       28.5278  -45.0675  -53.8008 H         1 UNK         0.0840 
    111 H111       29.1346  -44.0588  -52.5159 H         1 UNK         0.0840 
    112 H112       31.0815  -48.5205  -53.8949 H         1 UNK         0.2987 
    113 H113       32.0384  -50.3808  -56.7210 H         1 UNK         0.0785 
    114 H114       32.5198  -48.1364  -57.7209 H         1 UNK         0.0798 
    115 H115       33.9747  -48.8530  -57.0502 H         1 UNK         0.0798 
    116 H116       33.1378  -47.5672  -56.1760 H         1 UNK         0.0798 
    117 H117       33.7032  -49.4813  -54.6662 H         1 UNK         0.3079 
    118 H118       32.6153  -51.0415  -51.8436 H         1 UNK         0.0794 
    119 H119       34.5412  -52.6149  -51.8462 H         1 UNK         0.0786 
    120 H120       34.6837  -52.4766  -53.5997 H         1 UNK         0.0786 
    121 H121       33.2621  -53.2216  -52.8826 H         1 UNK         0.0786 
    122 H122       35.2585  -50.2755  -52.5991 H         1 UNK         0.3032 
    123 H123       35.8772  -48.0196  -51.4364 H         1 UNK         0.1094 
    124 H124       36.7947  -47.0634  -53.5979 H         1 UNK         0.0794 
    125 H125       36.3556  -48.7389  -53.8208 H         1 UNK         0.0794 
    126 H126       35.2950  -47.4696  -54.4226 H         1 UNK         0.0794 
    127 H127       33.6712  -46.3392  -52.0163 H         1 UNK         0.3016 
@<TRIPOS>BOND
     1    1    2 1    
     2    1   67 1    
     3    1   68 1    
     4    1   69 1    
     5    2    3 2    
     6    2    4 am   BACKBONE|DICT|INTERRES
     7    4    5 1    
     8    4   70 1    
     9    5    6 1    
    10    5   65 1    
    11    5   71 1    
    12    6    7 1    
    13    6   72 1    
    14    6   73 1    
    15    7    8 1    
    16    8    9 1    
    17    8   74 1    
    18    8   75 1    
    19    9   10 ar   
    20    9   14 ar   
    21   10   11 ar   
    22   10   76 1    
    23   11   12 ar   
    24   11   48 1    
    25   12   13 ar   
    26   12   77 1    
    27   13   14 ar   
    28   13   15 1    
    29   14   78 1    
    30   15   16 1    
    31   15   79 1    
    32   15   80 1    
    33   16   17 1    
    34   17   18 1    
    35   17   81 1    
    36   17   82 1    
    37   18   19 1    
    38   18   22 1    
    39   18   83 1    
    40   19   20 am   BACKBONE|DICT|INTERRES
    41   19   21 2    
    42   20   84 1    
    43   20   85 1    
    44   22   23 am   BACKBONE|DICT|INTERRES
    45   22   86 1    
    46   23   24 2    
    47   23   25 1    
    48   25   26 1    
    49   25   27 1    
    50   25   87 1    
    51   26   88 1    
    52   26   89 1    
    53   26   90 1    
    54   27   28 am   BACKBONE|DICT|INTERRES
    55   27   91 1    
    56   28   29 2    
    57   28   30 1    
    58   30   31 1    
    59   30   32 1    
    60   30   92 1    
    61   31   93 1    
    62   31   94 1    
    63   31   95 1    
    64   32   33 am   BACKBONE|DICT|INTERRES
    65   32   96 1    
    66   33   34 2    
    67   33   35 1    
    68   35   36 1    
    69   35   37 1    
    70   35   97 1    
    71   36   98 1    
    72   36   99 1    
    73   36  100 1    
    74   37   38 am   BACKBONE|DICT|INTERRES
    75   37  101 1    
    76   38   39 2    
    77   38   40 1    
    78   40   41 1    
    79   40   42 1    
    80   40  102 1    
    81   41  103 1    
    82   41  104 1    
    83   41  105 1    
    84   42   43 am   BACKBONE|DICT|INTERRES
    85   42  106 1    
    86   43   44 2    
    87   43   45 1    
    88   45   46 1    
    89   45   49 1    
    90   45  107 1    
    91   46   47 1    
    92   46  108 1    
    93   46  109 1    
    94   47   48 1    
    95   48  110 1    
    96   48  111 1    
    97   49   50 am   BACKBONE|DICT|INTERRES
    98   49  112 1    
    99   50   51 2    
   100   50   52 1    
   101   52   53 1    
   102   52   54 1    
   103   52  113 1    
   104   53  114 1    
   105   53  115 1    
   106   53  116 1    
   107   54   55 am   BACKBONE|DICT|INTERRES
   108   54  117 1    
   109   55   56 2    
   110   55   57 1    
   111   57   58 1    
   112   57   59 1    
   113   57  118 1    
   114   58  119 1    
   115   58  120 1    
   116   58  121 1    
   117   59   60 am   BACKBONE|DICT|INTERRES
   118   59  122 1    
   119   60   61 2    
   120   60   62 1    
   121   62   63 1    
   122   62   64 1    
   123   62  123 1    
   124   63  124 1    
   125   63  125 1    
   126   63  126 1    
   127   64   65 am   BACKBONE|DICT|INTERRES
   128   64  127 1    
   129   65   66 2    
@<TRIPOS>SUBSTRUCTURE
     1 UNK         1 GROUP             0       ****    0 ROOT    
