@<TRIPOS>MOLECULE
3R134
127   129    1
SMALL
USER_CHARGES


@<TRIPOS>ATOM
      1 CA         38.1611  -46.2794  -54.4656 C.3       0 UNK        -0.1968 
      2 C          36.6666  -46.5131  -54.2994 C.2       0 UNK         0.4852 
      3 O          36.2534  -47.1023  -53.3000 O.2       0 UNK        -0.5359 
      4 N          35.8653  -46.0569  -55.2741 N.am      1 UNK        -0.4300 
      5 CA         34.3976  -46.1524  -55.3230 C.3       1 UNK         0.0863 
      6 C6         33.6819  -45.2805  -54.2547 C.3       11 UNK        -0.0953 
      7 S7         34.0439  -43.5100  -54.4997 S.3       11 UNK        -0.2369 
      8 C8         32.9644  -42.7323  -53.2509 C.3       11 UNK         0.0226 
      9 C9         31.4660  -42.9240  -53.4857 C.ar      11 UNK        -0.0699 
     10 C10        30.6172  -43.0491  -52.3820 C.ar      11 UNK        -0.0804 
     11 C11        29.2388  -43.2066  -52.5517 C.ar      11 UNK        -0.0871 
     12 C12        28.7050  -43.2530  -53.8429 C.ar      11 UNK        -0.1008 
     13 C13        29.5388  -43.1196  -54.9573 C.ar      11 UNK        -0.0735 
     14 C14        30.9139  -42.9437  -54.7728 C.ar      11 UNK        -0.0945 
     15 C15        28.9604  -43.1983  -56.3616 C.3       11 UNK         0.0169 
     16 S16        28.0193  -41.7098  -56.8005 S.3       11 UNK        -0.2669 
     17 C17        27.7347  -41.9911  -58.5822 C.3       11 UNK        -0.0850 
     18 CA         26.4397  -42.7964  -58.8639 C.3       10 UNK         0.0855 
     19 C          25.9849  -42.6183  -60.3379 C.2       10 UNK         0.5543 
     20 N          25.1599  -41.6180  -60.6137 N.am      10 UNK        -0.7343 
     21 O          26.4034  -43.3474  -61.2354 O.2       10 UNK        -0.5027 
     22 N          26.6043  -44.2176  -58.5260 N.am      10 UNK        -0.4495 
     23 C          25.5981  -45.0630  -58.2859 C.2       10 UNK         0.4903 
     24 O          24.4210  -44.7086  -58.2073 O.2       10 UNK        -0.4860 
     25 CA         25.9286  -46.5558  -58.0941 C.3       9 UNK         0.0227 
     26 CB         25.6780  -47.3415  -59.3956 C.3       9 UNK        -0.1964 
     27 N          27.2526  -46.8724  -57.5377 N.am      9 UNK        -0.4231 
     28 C          28.4701  -46.7196  -58.0794 C.2       9 UNK         0.5014 
     29 O          28.6842  -46.1095  -59.1271 O.2       9 UNK        -0.5270 
     30 CA         29.6541  -47.3550  -57.3248 C.3       8 UNK         0.0284 
     31 CB         30.2544  -46.3680  -56.3164 C.3       8 UNK        -0.1977 
     32 N          29.2995  -48.5918  -56.6245 N.am      8 UNK        -0.4342 
     33 C          28.9670  -49.7451  -57.2227 C.2       8 UNK         0.5039 
     34 O          28.9602  -49.9121  -58.4425 O.2       8 UNK        -0.5547 
     35 CA         28.5598  -50.9052  -56.3015 C.3       7 UNK         0.0281 
     36 CB         29.7961  -51.6556  -55.7762 C.3       7 UNK        -0.1963 
     37 N          27.7514  -50.4290  -55.1774 N.am      7 UNK        -0.4444 
     38 C          26.4338  -50.1916  -55.2462 C.2       7 UNK         0.5104 
     39 O          25.7455  -50.4270  -56.2393 O.2       7 UNK        -0.5100 
     40 CA         25.7646  -49.5805  -54.0010 C.3       6 UNK         0.0396 
     41 CB         25.2142  -50.6896  -53.0907 C.3       6 UNK        -0.1801 
     42 N          26.6520  -48.7119  -53.2224 N.am      6 UNK        -0.4747 
     43 C          27.1337  -47.5334  -53.6455 C.2       6 UNK         0.5012 
     44 O          26.8703  -47.0427  -54.7420 O.2       6 UNK        -0.5003 
     45 CA         28.1093  -46.8017  -52.7012 C.3       5 UNK         0.0782 
     46 C46        27.3105  -45.9051  -51.7244 C.3       11 UNK        -0.0868 
     47 S47        28.3745  -44.9583  -50.5855 S.3       11 UNK        -0.2515 
     48 C48        28.3339  -43.2996  -51.3324 C.3       11 UNK         0.0199 
     49 N          29.0297  -47.7091  -52.0001 N.am      5 UNK        -0.4607 
     50 C          29.8364  -48.6064  -52.5795 C.2       4 UNK         0.5031 
     51 O          29.8581  -48.8304  -53.7941 O.2       4 UNK        -0.5119 
     52 CA         30.7185  -49.4341  -51.6391 C.3       4 UNK         0.0263 
     53 CB         29.8679  -50.4472  -50.8465 C.3       4 UNK        -0.1967 
     54 N          31.7057  -50.1331  -52.4526 N.am      4 UNK        -0.4237 
     55 C          32.8215  -50.7325  -52.0202 C.2       3 UNK         0.4908 
     56 O          33.1767  -50.7606  -50.8415 O.2       3 UNK        -0.5102 
     57 CA         33.6867  -51.4200  -53.0844 C.3       3 UNK         0.0241 
     58 CB         33.1522  -52.8426  -53.3543 C.3       3 UNK        -0.1971 
     59 N          33.7148  -50.6160  -54.3061 N.am      3 UNK        -0.4139 
     60 C          34.4427  -50.8306  -55.4043 C.2       2 UNK         0.5016 
     61 O          35.2324  -51.7658  -55.5402 O.2       2 UNK        -0.5319 
     62 CA         34.2555  -49.8280  -56.5580 C.3       2 UNK         0.0286 
     63 CB         32.8577  -49.9657  -57.1960 C.3       2 UNK        -0.1963 
     64 N          34.5422  -48.4254  -56.2182 N.am      2 UNK        -0.4790 
     65 C          33.9142  -47.6191  -55.3466 C.2       1 UNK         0.5024 
     66 O          33.0005  -47.9876  -54.6067 O.2       1 UNK        -0.4888 
     67 H67        38.3924  -45.7472  -55.3882 H         1 UNK         0.0892 
     68 H68        38.5430  -45.6915  -53.6314 H         1 UNK         0.0892 
     69 H69        38.6902  -47.2318  -54.4819 H         1 UNK         0.0892 
     70 H70        36.2844  -45.5756  -56.0579 H         1 UNK         0.3107 
     71 H71        34.1078  -45.7557  -56.2976 H         1 UNK         0.0773 
     72 H72        32.6000  -45.4109  -54.3146 H         1 UNK         0.0680 
     73 H73        33.9732  -45.5740  -53.2451 H         1 UNK         0.0680 
     74 H74        33.1743  -41.6624  -53.2327 H         1 UNK         0.0650 
     75 H75        33.2477  -43.1196  -52.2709 H         1 UNK         0.0650 
     76 H76        31.0281  -43.0174  -51.3819 H         1 UNK         0.1397 
     77 H77        27.6406  -43.3825  -53.9852 H         1 UNK         0.1363 
     78 H78        31.5559  -42.8330  -55.6354 H         1 UNK         0.1355 
     79 H79        29.7546  -43.3474  -57.0942 H         1 UNK         0.0707 
     80 H80        28.3047  -44.0663  -56.4252 H         1 UNK         0.0707 
     81 H81        27.6745  -41.0018  -59.0409 H         1 UNK         0.1034 
     82 H82        28.6031  -42.4719  -59.0366 H         1 UNK         0.1034 
     83 H83        25.6494  -42.3907  -58.2282 H         1 UNK         0.0482 
     84 H84        24.8181  -41.0081  -59.8869 H         1 UNK         0.3460 
     85 H85        24.8642  -41.4746  -61.5669 H         1 UNK         0.3460 
     86 H86        27.5179  -44.6263  -58.6933 H         1 UNK         0.2989 
     87 H87        25.2204  -46.9270  -57.3515 H         1 UNK         0.0559 
     88 H88        24.6553  -47.1986  -59.7471 H         1 UNK         0.0848 
     89 H89        25.8231  -48.4117  -59.2459 H         1 UNK         0.0848 
     90 H90        26.3432  -47.0210  -60.1981 H         1 UNK         0.0848 
     91 H91        27.2182  -47.2488  -56.5930 H         1 UNK         0.3144 
     92 H92        30.4237  -47.6017  -58.0592 H         1 UNK         0.0727 
     93 H93        29.5085  -46.0121  -55.6066 H         1 UNK         0.0790 
     94 H94        30.6814  -45.5035  -56.8238 H         1 UNK         0.0790 
     95 H95        31.0535  -46.8283  -55.7416 H         1 UNK         0.0790 
     96 H96        29.3507  -48.5745  -55.6087 H         1 UNK         0.3215 
     97 H97        27.9680  -51.6086  -56.8918 H         1 UNK         0.0863 
     98 H98        29.5098  -52.5003  -55.1496 H         1 UNK         0.0808 
     99 H99        30.4498  -51.0113  -55.1898 H         1 UNK         0.0808 
    100 H100       30.3878  -52.0522  -56.6021 H         1 UNK         0.0808 
    101 H101       28.2520  -50.1446  -54.3453 H         1 UNK         0.3118 
    102 H102       24.9233  -48.9751  -54.3453 H         1 UNK         0.0546 
    103 H103       26.0105  -51.3201  -52.6931 H         1 UNK         0.0828 
    104 H104       24.5285  -51.3382  -53.6378 H         1 UNK         0.0828 
    105 H105       24.6605  -50.2747  -52.2484 H         1 UNK         0.0828 
    106 H106       26.9271  -49.0399  -52.3076 H         1 UNK         0.3005 
    107 H107       28.7277  -46.1548  -53.3265 H         1 UNK         0.1257 
    108 H108       26.6385  -46.5118  -51.1140 H         1 UNK         0.0775 
    109 H109       26.6697  -45.2138  -52.2753 H         1 UNK         0.0775 
    110 H110       27.3080  -43.0254  -51.5832 H         1 UNK         0.0840 
    111 H111       28.6618  -42.5741  -50.5862 H         1 UNK         0.0840 
    112 H112       29.0764  -47.5870  -50.9986 H         1 UNK         0.2987 
    113 H113       31.2338  -48.7559  -50.9559 H         1 UNK         0.0785 
    114 H114       29.1155  -49.9449  -50.2375 H         1 UNK         0.0798 
    115 H115       30.4812  -51.0388  -50.1668 H         1 UNK         0.0798 
    116 H116       29.3456  -51.1386  -51.5092 H         1 UNK         0.0798 
    117 H117       31.4891  -50.1056  -53.4410 H         1 UNK         0.3079 
    118 H118       34.7056  -51.4871  -52.6979 H         1 UNK         0.0794 
    119 H119       33.8202  -53.4103  -54.0014 H         1 UNK         0.0786 
    120 H120       32.1688  -52.8210  -53.8254 H         1 UNK         0.0786 
    121 H121       33.0571  -53.4065  -52.4253 H         1 UNK         0.0786 
    122 H122       33.2210  -49.7241  -54.2714 H         1 UNK         0.3032 
    123 H123       34.9851  -50.1041  -57.3217 H         1 UNK         0.1094 
    124 H124       32.0641  -49.6552  -56.5168 H         1 UNK         0.0794 
    125 H125       32.7735  -49.3609  -58.0988 H         1 UNK         0.0794 
    126 H126       32.6568  -50.9994  -57.4803 H         1 UNK         0.0794 
    127 H127       35.3134  -48.0204  -56.7313 H         1 UNK         0.3016 
@<TRIPOS>BOND
     1    1    2 1    
     2    1   67 1    
     3    1   68 1    
     4    1   69 1    
     5    2    3 2    
     6    2    4 am   BACKBONE|DICT|INTERRES
     7    4    5 1    
     8    4   70 1    
     9    5    6 1    
    10    5   65 1    
    11    5   71 1    
    12    6    7 1    
    13    6   72 1    
    14    6   73 1    
    15    7    8 1    
    16    8    9 1    
    17    8   74 1    
    18    8   75 1    
    19    9   10 ar   
    20    9   14 ar   
    21   10   11 ar   
    22   10   76 1    
    23   11   12 ar   
    24   11   48 1    
    25   12   13 ar   
    26   12   77 1    
    27   13   14 ar   
    28   13   15 1    
    29   14   78 1    
    30   15   16 1    
    31   15   79 1    
    32   15   80 1    
    33   16   17 1    
    34   17   18 1    
    35   17   81 1    
    36   17   82 1    
    37   18   19 1    
    38   18   22 1    
    39   18   83 1    
    40   19   20 am   BACKBONE|DICT|INTERRES
    41   19   21 2    
    42   20   84 1    
    43   20   85 1    
    44   22   23 am   BACKBONE|DICT|INTERRES
    45   22   86 1    
    46   23   24 2    
    47   23   25 1    
    48   25   26 1    
    49   25   27 1    
    50   25   87 1    
    51   26   88 1    
    52   26   89 1    
    53   26   90 1    
    54   27   28 am   BACKBONE|DICT|INTERRES
    55   27   91 1    
    56   28   29 2    
    57   28   30 1    
    58   30   31 1    
    59   30   32 1    
    60   30   92 1    
    61   31   93 1    
    62   31   94 1    
    63   31   95 1    
    64   32   33 am   BACKBONE|DICT|INTERRES
    65   32   96 1    
    66   33   34 2    
    67   33   35 1    
    68   35   36 1    
    69   35   37 1    
    70   35   97 1    
    71   36   98 1    
    72   36   99 1    
    73   36  100 1    
    74   37   38 am   BACKBONE|DICT|INTERRES
    75   37  101 1    
    76   38   39 2    
    77   38   40 1    
    78   40   41 1    
    79   40   42 1    
    80   40  102 1    
    81   41  103 1    
    82   41  104 1    
    83   41  105 1    
    84   42   43 am   BACKBONE|DICT|INTERRES
    85   42  106 1    
    86   43   44 2    
    87   43   45 1    
    88   45   46 1    
    89   45   49 1    
    90   45  107 1    
    91   46   47 1    
    92   46  108 1    
    93   46  109 1    
    94   47   48 1    
    95   48  110 1    
    96   48  111 1    
    97   49   50 am   BACKBONE|DICT|INTERRES
    98   49  112 1    
    99   50   51 2    
   100   50   52 1    
   101   52   53 1    
   102   52   54 1    
   103   52  113 1    
   104   53  114 1    
   105   53  115 1    
   106   53  116 1    
   107   54   55 am   BACKBONE|DICT|INTERRES
   108   54  117 1    
   109   55   56 2    
   110   55   57 1    
   111   57   58 1    
   112   57   59 1    
   113   57  118 1    
   114   58  119 1    
   115   58  120 1    
   116   58  121 1    
   117   59   60 am   BACKBONE|DICT|INTERRES
   118   59  122 1    
   119   60   61 2    
   120   60   62 1    
   121   62   63 1    
   122   62   64 1    
   123   62  123 1    
   124   63  124 1    
   125   63  125 1    
   126   63  126 1    
   127   64   65 am   BACKBONE|DICT|INTERRES
   128   64  127 1    
   129   65   66 2    
@<TRIPOS>SUBSTRUCTURE
     1 UNK         1 GROUP             0       ****    0 ROOT    
