@<TRIPOS>MOLECULE
3R134
127   129    1
SMALL
USER_CHARGES


@<TRIPOS>ATOM
      1 CA         34.5170  -43.6149  -47.7073 C.3       0 UNK        -0.1968 
      2 C          34.9340  -44.1410  -49.0731 C.2       0 UNK         0.4852 
      3 O          36.0133  -44.7221  -49.2008 O.2       0 UNK        -0.5359 
      4 N          34.0925  -43.9331  -50.0936 N.am      1 UNK        -0.4300 
      5 CA         34.2845  -44.4291  -51.4595 C.3       1 UNK         0.0863 
      6 C6         33.4512  -43.6190  -52.4860 C.3       11 UNK        -0.0953 
      7 S7         31.6698  -43.4694  -52.0976 S.3       11 UNK        -0.2369 
      8 C8         30.9234  -44.6914  -53.2193 C.3       11 UNK         0.0226 
      9 C9         30.9625  -44.2480  -54.6740 C.ar      11 UNK        -0.0699 
     10 C10        31.9592  -44.7343  -55.5227 C.ar      11 UNK        -0.0804 
     11 C11        32.0093  -44.3412  -56.8624 C.ar      11 UNK        -0.0871 
     12 C12        31.0375  -43.4662  -57.3561 C.ar      11 UNK        -0.1008 
     13 C13        30.0366  -42.9659  -56.5169 C.ar      11 UNK        -0.0735 
     14 C14        30.0051  -43.3598  -55.1743 C.ar      11 UNK        -0.0945 
     15 C15        29.0244  -41.9659  -57.0601 C.3       11 UNK         0.0169 
     16 S16        27.4897  -42.7686  -57.6254 S.3       11 UNK        -0.2669 
     17 C17        26.5702  -42.9542  -56.0593 C.3       11 UNK        -0.0850 
     18 CA         26.4809  -44.4347  -55.5879 C.3       10 UNK         0.0855 
     19 C          25.9941  -44.5870  -54.1152 C.2       10 UNK         0.5543 
     20 N          25.6381  -45.7901  -53.6839 N.am      10 UNK        -0.7343 
     21 O          25.9507  -43.6247  -53.3524 O.2       10 UNK        -0.5027 
     22 N          25.7603  -45.3142  -56.5278 N.am      10 UNK        -0.4495 
     23 C          24.4693  -45.2159  -56.8729 C.2       10 UNK         0.4903 
     24 O          23.7310  -44.3071  -56.4896 O.2       10 UNK        -0.4860 
     25 CA         23.8647  -46.3296  -57.7560 C.3       9 UNK         0.0227 
     26 CB         22.9729  -45.7545  -58.8773 C.3       9 UNK        -0.1964 
     27 N          24.8205  -47.3078  -58.2956 N.am      9 UNK        -0.4231 
     28 C          25.7954  -47.1169  -59.1963 C.2       9 UNK         0.5014 
     29 O          26.0577  -46.0250  -59.7020 O.2       9 UNK        -0.5270 
     30 CA         26.6140  -48.3661  -59.5871 C.3       8 UNK         0.0284 
     31 CB         27.8128  -48.0321  -60.4953 C.3       8 UNK        -0.1977 
     32 N          27.0906  -49.0955  -58.4069 N.am      8 UNK        -0.4342 
     33 C          26.3626  -49.9734  -57.6989 C.2       8 UNK         0.5039 
     34 O          25.2080  -50.2802  -57.9983 O.2       8 UNK        -0.5547 
     35 CA         26.9806  -50.5685  -56.4177 C.3       7 UNK         0.0281 
     36 CB         27.6230  -51.9324  -56.7141 C.3       7 UNK        -0.1963 
     37 N          27.9699  -49.7034  -55.7740 N.am      7 UNK        -0.4444 
     38 C          27.7500  -48.4539  -55.3428 C.2       7 UNK         0.5104 
     39 O          26.6452  -47.9117  -55.3479 O.2       7 UNK        -0.5100 
     40 CA         28.9786  -47.6601  -54.8635 C.3       6 UNK         0.0396 
     41 CB         29.0956  -47.7896  -53.3371 C.3       6 UNK        -0.1801 
     42 N          30.2395  -48.0604  -55.5074 N.am      6 UNK        -0.4747 
     43 C          30.4672  -48.0867  -56.8332 C.2       6 UNK         0.5012 
     44 O          29.6213  -47.7711  -57.6699 O.2       6 UNK        -0.5003 
     45 CA         31.8186  -48.6549  -57.3141 C.3       5 UNK         0.0782 
     46 C46        32.9516  -47.6064  -57.3604 C.3       11 UNK        -0.0868 
     47 S47        32.7139  -46.3465  -58.6575 S.3       11 UNK        -0.2515 
     48 C48        33.1377  -44.8187  -57.7656 C.3       11 UNK         0.0199 
     49 N          32.2053  -49.7961  -56.4868 N.am      5 UNK        -0.4607 
     50 C          31.8222  -51.0596  -56.7079 C.2       4 UNK         0.5031 
     51 O          31.1662  -51.4154  -57.6861 O.2       4 UNK        -0.5119 
     52 CA         32.2289  -52.1040  -55.6531 C.3       4 UNK         0.0263 
     53 CB         33.5513  -52.7799  -56.0492 C.3       4 UNK        -0.1967 
     54 N          32.3559  -51.5413  -54.3054 N.am      4 UNK        -0.4237 
     55 C          31.3321  -51.0594  -53.5862 C.2       3 UNK         0.4908 
     56 O          30.1605  -51.0838  -53.9637 O.2       3 UNK        -0.5102 
     57 CA         31.6789  -50.4087  -52.2354 C.3       3 UNK         0.0241 
     58 CB         31.6600  -51.4604  -51.1149 C.3       3 UNK        -0.1971 
     59 N          32.9639  -49.6984  -52.2189 N.am      3 UNK        -0.4139 
     60 C          33.2790  -48.6462  -52.9883 C.2       2 UNK         0.5016 
     61 O          32.5470  -48.1909  -53.8695 O.2       2 UNK        -0.5319 
     62 CA         34.6753  -48.0368  -52.7831 C.3       2 UNK         0.0286 
     63 CB         35.5689  -48.3541  -53.9939 C.3       2 UNK        -0.1963 
     64 N          34.6522  -46.5847  -52.5733 N.am      2 UNK        -0.4790 
     65 C          34.0482  -45.9550  -51.5539 C.2       1 UNK         0.5024 
     66 O          33.3590  -46.5299  -50.7067 O.2       1 UNK        -0.4888 
     67 H67        33.5512  -43.1109  -47.7419 H         1 UNK         0.0892 
     68 H68        35.2562  -42.9054  -47.3363 H         1 UNK         0.0892 
     69 H69        34.4449  -44.4366  -46.9953 H         1 UNK         0.0892 
     70 H70        33.2049  -43.4801  -49.9274 H         1 UNK         0.3107 
     71 H71        35.3354  -44.2662  -51.7098 H         1 UNK         0.0773 
     72 H72        33.8450  -42.6024  -52.5282 H         1 UNK         0.0680 
     73 H73        33.5938  -44.0117  -53.4912 H         1 UNK         0.0680 
     74 H74        31.4408  -45.6433  -53.0974 H         1 UNK         0.0650 
     75 H75        29.8883  -44.8593  -52.9185 H         1 UNK         0.0650 
     76 H76        32.7049  -45.4084  -55.1270 H         1 UNK         0.1397 
     77 H77        31.0724  -43.1577  -58.3922 H         1 UNK         0.1363 
     78 H78        29.2428  -42.9707  -54.5140 H         1 UNK         0.1355 
     79 H79        29.4581  -41.4282  -57.9046 H         1 UNK         0.0707 
     80 H80        28.8017  -41.2046  -56.3112 H         1 UNK         0.0707 
     81 H81        25.5755  -42.5263  -56.1866 H         1 UNK         0.1034 
     82 H82        27.0484  -42.3374  -55.2977 H         1 UNK         0.1034 
     83 H83        27.5021  -44.8117  -55.5704 H         1 UNK         0.0482 
     84 H84        25.7479  -46.5960  -54.2923 H         1 UNK         0.3460 
     85 H85        25.3187  -45.9067  -52.7360 H         1 UNK         0.3460 
     86 H86        26.2690  -46.1296  -56.8379 H         1 UNK         0.2989 
     87 H87        23.2165  -46.9029  -57.0918 H         1 UNK         0.0559 
     88 H88        22.5196  -46.5474  -59.4720 H         1 UNK         0.0848 
     89 H89        23.5362  -45.1084  -59.5512 H         1 UNK         0.0848 
     90 H90        22.1585  -45.1575  -58.4650 H         1 UNK         0.0848 
     91 H91        24.7128  -48.2577  -57.9526 H         1 UNK         0.3144 
     92 H92        25.9473  -49.0165  -60.1573 H         1 UNK         0.0727 
     93 H93        28.3806  -48.9268  -60.7511 H         1 UNK         0.0790 
     94 H94        28.4950  -47.3252  -60.0218 H         1 UNK         0.0790 
     95 H95        27.4790  -47.5822  -61.4311 H         1 UNK         0.0790 
     96 H96        28.0070  -48.8221  -58.0605 H         1 UNK         0.3215 
     97 H97        26.1680  -50.7178  -55.7037 H         1 UNK         0.0863 
     98 H98        28.0109  -52.3955  -55.8063 H         1 UNK         0.0808 
     99 H99        28.4468  -51.8434  -57.4233 H         1 UNK         0.0808 
    100 H100       26.8950  -52.6214  -57.1445 H         1 UNK         0.0808 
    101 H101       28.9014  -50.0807  -55.6523 H         1 UNK         0.3118 
    102 H102       28.8261  -46.6094  -55.1105 H         1 UNK         0.0546 
    103 H103       28.3057  -47.2224  -52.8431 H         1 UNK         0.0828 
    104 H104       30.0473  -47.4215  -52.9606 H         1 UNK         0.0828 
    105 H105       28.9921  -48.8252  -53.0135 H         1 UNK         0.0828 
    106 H106       31.0149  -48.2786  -54.8846 H         1 UNK         0.3005 
    107 H107       31.6634  -49.0088  -58.3365 H         1 UNK         0.1257 
    108 H108       33.8977  -48.1035  -57.5808 H         1 UNK         0.0775 
    109 H109       33.0889  -47.1474  -56.3837 H         1 UNK         0.0775 
    110 H110       34.0523  -44.9693  -57.1897 H         1 UNK         0.0840 
    111 H111       33.3718  -44.0442  -58.4975 H         1 UNK         0.0840 
    112 H112       32.6956  -49.5771  -55.6302 H         1 UNK         0.2987 
    113 H113       31.4467  -52.8661  -55.6281 H         1 UNK         0.0785 
    114 H114       34.3781  -52.0689  -56.0753 H         1 UNK         0.0798 
    115 H115       33.4771  -53.2295  -57.0405 H         1 UNK         0.0798 
    116 H116       33.8140  -53.5771  -55.3535 H         1 UNK         0.0798 
    117 H117       33.2846  -51.4940  -53.9124 H         1 UNK         0.3079 
    118 H118       30.9042  -49.6736  -52.0160 H         1 UNK         0.0794 
    119 H119       32.4408  -52.2102  -51.2486 H         1 UNK         0.0786 
    120 H120       30.7042  -51.9862  -51.0896 H         1 UNK         0.0786 
    121 H121       31.7988  -51.0006  -50.1361 H         1 UNK         0.0786 
    122 H122       33.6331  -50.0084  -51.5289 H         1 UNK         0.3032 
    123 H123       35.1277  -48.4856  -51.8960 H         1 UNK         0.1094 
    124 H124       36.5888  -48.0014  -53.8391 H         1 UNK         0.0794 
    125 H125       35.6249  -49.4292  -54.1702 H         1 UNK         0.0794 
    126 H126       35.1899  -47.8940  -54.9076 H         1 UNK         0.0794 
    127 H127       35.1807  -46.0343  -53.2343 H         1 UNK         0.3016 
@<TRIPOS>BOND
     1    1    2 1    
     2    1   67 1    
     3    1   68 1    
     4    1   69 1    
     5    2    3 2    
     6    2    4 am   BACKBONE|DICT|INTERRES
     7    4    5 1    
     8    4   70 1    
     9    5    6 1    
    10    5   65 1    
    11    5   71 1    
    12    6    7 1    
    13    6   72 1    
    14    6   73 1    
    15    7    8 1    
    16    8    9 1    
    17    8   74 1    
    18    8   75 1    
    19    9   10 ar   
    20    9   14 ar   
    21   10   11 ar   
    22   10   76 1    
    23   11   12 ar   
    24   11   48 1    
    25   12   13 ar   
    26   12   77 1    
    27   13   14 ar   
    28   13   15 1    
    29   14   78 1    
    30   15   16 1    
    31   15   79 1    
    32   15   80 1    
    33   16   17 1    
    34   17   18 1    
    35   17   81 1    
    36   17   82 1    
    37   18   19 1    
    38   18   22 1    
    39   18   83 1    
    40   19   20 am   BACKBONE|DICT|INTERRES
    41   19   21 2    
    42   20   84 1    
    43   20   85 1    
    44   22   23 am   BACKBONE|DICT|INTERRES
    45   22   86 1    
    46   23   24 2    
    47   23   25 1    
    48   25   26 1    
    49   25   27 1    
    50   25   87 1    
    51   26   88 1    
    52   26   89 1    
    53   26   90 1    
    54   27   28 am   BACKBONE|DICT|INTERRES
    55   27   91 1    
    56   28   29 2    
    57   28   30 1    
    58   30   31 1    
    59   30   32 1    
    60   30   92 1    
    61   31   93 1    
    62   31   94 1    
    63   31   95 1    
    64   32   33 am   BACKBONE|DICT|INTERRES
    65   32   96 1    
    66   33   34 2    
    67   33   35 1    
    68   35   36 1    
    69   35   37 1    
    70   35   97 1    
    71   36   98 1    
    72   36   99 1    
    73   36  100 1    
    74   37   38 am   BACKBONE|DICT|INTERRES
    75   37  101 1    
    76   38   39 2    
    77   38   40 1    
    78   40   41 1    
    79   40   42 1    
    80   40  102 1    
    81   41  103 1    
    82   41  104 1    
    83   41  105 1    
    84   42   43 am   BACKBONE|DICT|INTERRES
    85   42  106 1    
    86   43   44 2    
    87   43   45 1    
    88   45   46 1    
    89   45   49 1    
    90   45  107 1    
    91   46   47 1    
    92   46  108 1    
    93   46  109 1    
    94   47   48 1    
    95   48  110 1    
    96   48  111 1    
    97   49   50 am   BACKBONE|DICT|INTERRES
    98   49  112 1    
    99   50   51 2    
   100   50   52 1    
   101   52   53 1    
   102   52   54 1    
   103   52  113 1    
   104   53  114 1    
   105   53  115 1    
   106   53  116 1    
   107   54   55 am   BACKBONE|DICT|INTERRES
   108   54  117 1    
   109   55   56 2    
   110   55   57 1    
   111   57   58 1    
   112   57   59 1    
   113   57  118 1    
   114   58  119 1    
   115   58  120 1    
   116   58  121 1    
   117   59   60 am   BACKBONE|DICT|INTERRES
   118   59  122 1    
   119   60   61 2    
   120   60   62 1    
   121   62   63 1    
   122   62   64 1    
   123   62  123 1    
   124   63  124 1    
   125   63  125 1    
   126   63  126 1    
   127   64   65 am   BACKBONE|DICT|INTERRES
   128   64  127 1    
   129   65   66 2    
@<TRIPOS>SUBSTRUCTURE
     1 UNK         1 GROUP             0       ****    0 ROOT    
