@<TRIPOS>MOLECULE
3R134
127   129    1
SMALL
USER_CHARGES


@<TRIPOS>ATOM
      1 CA         31.3936  -42.4594  -51.6407 C.3       0 UNK        -0.1968 
      2 C          32.8955  -42.7017  -51.5963 C.2       0 UNK         0.4852 
      3 O          33.6729  -41.7594  -51.7552 O.2       0 UNK        -0.5359 
      4 N          33.3056  -43.9550  -51.3833 N.am      1 UNK        -0.4300 
      5 CA         34.6942  -44.4005  -51.2904 C.3       1 UNK         0.0863 
      6 C6         35.4177  -44.4591  -52.6669 C.3       11 UNK        -0.0953 
      7 S7         34.6144  -45.5537  -53.8889 S.3       11 UNK        -0.2369 
      8 C8         33.8190  -44.3489  -54.9925 C.3       11 UNK         0.0226 
      9 C9         32.5566  -44.9165  -55.6237 C.ar      11 UNK        -0.0699 
     10 C10        32.6138  -45.5996  -56.8431 C.ar      11 UNK        -0.0804 
     11 C11        31.4422  -46.0639  -57.4515 C.ar      11 UNK        -0.0871 
     12 C12        30.2109  -45.8410  -56.8296 C.ar      11 UNK        -0.1008 
     13 C13        30.1440  -45.1822  -55.5986 C.ar      11 UNK        -0.0735 
     14 C14        31.3204  -44.7248  -54.9996 C.ar      11 UNK        -0.0945 
     15 C15        28.7954  -44.9200  -54.9471 C.3       11 UNK         0.0169 
     16 S16        27.8859  -46.4637  -54.6332 S.3       11 UNK        -0.2669 
     17 C17        26.1820  -45.8375  -54.4494 C.3       11 UNK        -0.0850 
     18 CA         25.3312  -46.1096  -55.7225 C.3       10 UNK         0.0855 
     19 C          23.7980  -45.9230  -55.5018 C.2       10 UNK         0.5543 
     20 N          23.0228  -45.5612  -56.5186 N.am      10 UNK        -0.7343 
     21 O          23.2933  -46.1437  -54.4038 O.2       10 UNK        -0.5027 
     22 N          25.8603  -45.4440  -56.9253 N.am      10 UNK        -0.4495 
     23 C          25.8558  -44.1258  -57.1751 C.2       10 UNK         0.4903 
     24 O          25.5170  -43.2699  -56.3577 O.2       10 UNK        -0.4860 
     25 CA         26.2758  -43.6796  -58.5903 C.3       9 UNK         0.0227 
     26 CB         27.7419  -43.2168  -58.5927 C.3       9 UNK        -0.1964 
     27 N          26.0942  -44.7148  -59.6142 N.am      9 UNK        -0.4231 
     28 C          24.9292  -45.2939  -59.9397 C.2       9 UNK         0.5014 
     29 O          23.8389  -44.9550  -59.4753 O.2       9 UNK        -0.5270 
     30 CA         24.9942  -46.5153  -60.8753 C.3       8 UNK         0.0284 
     31 CB         26.2379  -46.5382  -61.7943 C.3       8 UNK        -0.1977 
     32 N          24.8840  -47.7657  -60.1103 N.am      8 UNK        -0.4342 
     33 C          25.6914  -48.1733  -59.1204 C.2       8 UNK         0.5039 
     34 O          26.6908  -47.5518  -58.7390 O.2       8 UNK        -0.5547 
     35 CA         25.3186  -49.4860  -58.4225 C.3       7 UNK         0.0281 
     36 CB         25.6373  -50.7027  -59.3108 C.3       7 UNK        -0.1963 
     37 N          26.1008  -49.5493  -57.1959 N.am      7 UNK        -0.4444 
     38 C          25.8539  -50.2773  -56.1040 C.2       7 UNK         0.5104 
     39 O          24.8807  -51.0233  -55.9856 O.2       7 UNK        -0.5100 
     40 CA         26.8696  -50.1290  -54.9493 C.3       6 UNK         0.0396 
     41 CB         26.9059  -51.3623  -54.0231 C.3       6 UNK        -0.1801 
     42 N          28.2234  -49.7735  -55.4052 N.am      6 UNK        -0.4747 
     43 C          29.0165  -50.4904  -56.2199 C.2       6 UNK         0.5012 
     44 O          28.7197  -51.5979  -56.6691 O.2       6 UNK        -0.5003 
     45 CA         30.3610  -49.8579  -56.6297 C.3       5 UNK         0.0782 
     46 C46        30.2380  -49.1938  -58.0238 C.3       11 UNK        -0.0868 
     47 S47        31.8346  -48.5510  -58.6348 S.3       11 UNK        -0.2515 
     48 C48        31.5016  -46.7680  -58.7997 C.3       11 UNK         0.0199 
     49 N          30.9043  -48.9388  -55.6233 N.am      5 UNK        -0.4607 
     50 C          31.3912  -49.3197  -54.4370 C.2       4 UNK         0.5031 
     51 O          31.3154  -50.4688  -53.9952 O.2       4 UNK        -0.5119 
     52 CA         32.0839  -48.2269  -53.6079 C.3       4 UNK         0.0263 
     53 CB         31.1068  -47.5960  -52.6048 C.3       4 UNK        -0.1967 
     54 N          33.2551  -48.7301  -52.8851 N.am      4 UNK        -0.4237 
     55 C          34.3544  -49.2444  -53.4563 C.2       3 UNK         0.4908 
     56 O          34.5257  -49.3229  -54.6743 O.2       3 UNK        -0.5102 
     57 CA         35.4563  -49.7134  -52.4940 C.3       3 UNK         0.0241 
     58 CB         36.7417  -50.1632  -53.2158 C.3       3 UNK        -0.1971 
     59 N          35.7793  -48.6319  -51.5648 N.am      3 UNK        -0.4139 
     60 C          35.8177  -48.7364  -50.2311 C.2       2 UNK         0.5016 
     61 O          35.6112  -49.7854  -49.6194 O.2       2 UNK        -0.5319 
     62 CA         36.1410  -47.4578  -49.4329 C.3       2 UNK         0.0286 
     63 CB         37.5963  -47.4910  -48.9370 C.3       2 UNK        -0.1963 
     64 N          35.9170  -46.2070  -50.1698 N.am      2 UNK        -0.4790 
     65 C          34.7143  -45.7435  -50.5370 C.2       1 UNK         0.5024 
     66 O          33.6570  -46.3389  -50.3083 O.2       1 UNK        -0.4888 
     67 H67        31.1138  -42.0112  -52.5937 H         1 UNK         0.0892 
     68 H68        30.8274  -43.3832  -51.5211 H         1 UNK         0.0892 
     69 H69        31.1005  -41.7764  -50.8439 H         1 UNK         0.0892 
     70 H70        32.6426  -44.6987  -51.2006 H         1 UNK         0.3107 
     71 H71        35.2255  -43.6880  -50.6556 H         1 UNK         0.0773 
     72 H72        35.4994  -43.4537  -53.0820 H         1 UNK         0.0680 
     73 H73        36.4484  -44.7945  -52.5428 H         1 UNK         0.0680 
     74 H74        33.5690  -43.4430  -54.4390 H         1 UNK         0.0650 
     75 H75        34.5289  -44.0480  -55.7642 H         1 UNK         0.0650 
     76 H76        33.5689  -45.7552  -57.3263 H         1 UNK         0.1397 
     77 H77        29.2968  -46.1749  -57.3023 H         1 UNK         0.1363 
     78 H78        31.2747  -44.1996  -54.0564 H         1 UNK         0.1355 
     79 H79        28.2190  -44.2709  -55.6045 H         1 UNK         0.0707 
     80 H80        28.9105  -44.3824  -54.0047 H         1 UNK         0.0707 
     81 H81        26.1870  -44.7754  -54.2000 H         1 UNK         0.1034 
     82 H82        25.7519  -46.3448  -53.5842 H         1 UNK         0.1034 
     83 H83        25.4231  -47.1739  -55.9336 H         1 UNK         0.0482 
     84 H84        23.4141  -45.3709  -57.4332 H         1 UNK         0.3460 
     85 H85        22.0325  -45.4550  -56.3665 H         1 UNK         0.3460 
     86 H86        26.1853  -46.0710  -57.6568 H         1 UNK         0.2989 
     87 H87        25.6463  -42.8309  -58.8647 H         1 UNK         0.0559 
     88 H88        28.0270  -42.8025  -59.5598 H         1 UNK         0.0848 
     89 H89        28.4250  -44.0349  -58.3629 H         1 UNK         0.0848 
     90 H90        27.9072  -42.4374  -57.8474 H         1 UNK         0.0848 
     91 H91        26.9343  -45.1129  -60.0088 H         1 UNK         0.3144 
     92 H92        24.1130  -46.4580  -61.5164 H         1 UNK         0.0727 
     93 H93        26.1655  -47.3464  -62.5222 H         1 UNK         0.0790 
     94 H94        27.1680  -46.6819  -61.2435 H         1 UNK         0.0790 
     95 H95        26.3264  -45.6088  -62.3588 H         1 UNK         0.0790 
     96 H96        24.0741  -48.3312  -60.3260 H         1 UNK         0.3215 
     97 H97        24.2555  -49.4657  -58.1733 H         1 UNK         0.0863 
     98 H98        25.3872  -51.6375  -58.8086 H         1 UNK         0.0808 
     99 H99        26.6954  -50.7399  -59.5741 H         1 UNK         0.0808 
    100 H100       25.0684  -50.6749  -60.2407 H         1 UNK         0.0808 
    101 H101       26.8915  -48.9153  -57.2000 H         1 UNK         0.3118 
    102 H102       26.5216  -49.2844  -54.3532 H         1 UNK         0.0546 
    103 H103       27.1720  -52.2697  -54.5658 H         1 UNK         0.0828 
    104 H104       25.9324  -51.5346  -53.5626 H         1 UNK         0.0828 
    105 H105       27.6261  -51.2306  -53.2157 H         1 UNK         0.0828 
    106 H106       28.5607  -48.8687  -55.1010 H         1 UNK         0.3005 
    107 H107       31.0695  -50.6851  -56.7196 H         1 UNK         0.1257 
    108 H108       29.8818  -49.9198  -58.7576 H         1 UNK         0.0775 
    109 H109       29.4916  -48.3983  -58.0115 H         1 UNK         0.0775 
    110 H110       32.2897  -46.3214  -59.4079 H         1 UNK         0.0840 
    111 H111       30.5743  -46.6175  -59.3553 H         1 UNK         0.0840 
    112 H112       31.0162  -47.9773  -55.9174 H         1 UNK         0.2987 
    113 H113       32.4292  -47.4510  -54.2919 H         1 UNK         0.0785 
    114 H114       30.7473  -48.3246  -51.8773 H         1 UNK         0.0798 
    115 H115       31.5735  -46.7753  -52.0610 H         1 UNK         0.0798 
    116 H116       30.2362  -47.1859  -53.1142 H         1 UNK         0.0798 
    117 H117       33.2095  -48.6951  -51.8769 H         1 UNK         0.3079 
    118 H118       35.0505  -50.5730  -51.9563 H         1 UNK         0.0794 
    119 H119       36.5376  -50.9847  -53.9039 H         1 UNK         0.0786 
    120 H120       37.4907  -50.5148  -52.5060 H         1 UNK         0.0786 
    121 H121       37.1837  -49.3515  -53.7949 H         1 UNK         0.0786 
    122 H122       35.9272  -47.7209  -51.9768 H         1 UNK         0.3032 
    123 H123       35.4828  -47.4554  -48.5607 H         1 UNK         0.1094 
    124 H124       37.7907  -48.3936  -48.3557 H         1 UNK         0.0794 
    125 H125       38.3059  -47.4787  -49.7654 H         1 UNK         0.0794 
    126 H126       37.8163  -46.6405  -48.2914 H         1 UNK         0.0794 
    127 H127       36.7386  -45.6611  -50.3896 H         1 UNK         0.3016 
@<TRIPOS>BOND
     1    1    2 1    
     2    1   67 1    
     3    1   68 1    
     4    1   69 1    
     5    2    3 2    
     6    2    4 am   BACKBONE|DICT|INTERRES
     7    4    5 1    
     8    4   70 1    
     9    5    6 1    
    10    5   65 1    
    11    5   71 1    
    12    6    7 1    
    13    6   72 1    
    14    6   73 1    
    15    7    8 1    
    16    8    9 1    
    17    8   74 1    
    18    8   75 1    
    19    9   10 ar   
    20    9   14 ar   
    21   10   11 ar   
    22   10   76 1    
    23   11   12 ar   
    24   11   48 1    
    25   12   13 ar   
    26   12   77 1    
    27   13   14 ar   
    28   13   15 1    
    29   14   78 1    
    30   15   16 1    
    31   15   79 1    
    32   15   80 1    
    33   16   17 1    
    34   17   18 1    
    35   17   81 1    
    36   17   82 1    
    37   18   19 1    
    38   18   22 1    
    39   18   83 1    
    40   19   20 am   BACKBONE|DICT|INTERRES
    41   19   21 2    
    42   20   84 1    
    43   20   85 1    
    44   22   23 am   BACKBONE|DICT|INTERRES
    45   22   86 1    
    46   23   24 2    
    47   23   25 1    
    48   25   26 1    
    49   25   27 1    
    50   25   87 1    
    51   26   88 1    
    52   26   89 1    
    53   26   90 1    
    54   27   28 am   BACKBONE|DICT|INTERRES
    55   27   91 1    
    56   28   29 2    
    57   28   30 1    
    58   30   31 1    
    59   30   32 1    
    60   30   92 1    
    61   31   93 1    
    62   31   94 1    
    63   31   95 1    
    64   32   33 am   BACKBONE|DICT|INTERRES
    65   32   96 1    
    66   33   34 2    
    67   33   35 1    
    68   35   36 1    
    69   35   37 1    
    70   35   97 1    
    71   36   98 1    
    72   36   99 1    
    73   36  100 1    
    74   37   38 am   BACKBONE|DICT|INTERRES
    75   37  101 1    
    76   38   39 2    
    77   38   40 1    
    78   40   41 1    
    79   40   42 1    
    80   40  102 1    
    81   41  103 1    
    82   41  104 1    
    83   41  105 1    
    84   42   43 am   BACKBONE|DICT|INTERRES
    85   42  106 1    
    86   43   44 2    
    87   43   45 1    
    88   45   46 1    
    89   45   49 1    
    90   45  107 1    
    91   46   47 1    
    92   46  108 1    
    93   46  109 1    
    94   47   48 1    
    95   48  110 1    
    96   48  111 1    
    97   49   50 am   BACKBONE|DICT|INTERRES
    98   49  112 1    
    99   50   51 2    
   100   50   52 1    
   101   52   53 1    
   102   52   54 1    
   103   52  113 1    
   104   53  114 1    
   105   53  115 1    
   106   53  116 1    
   107   54   55 am   BACKBONE|DICT|INTERRES
   108   54  117 1    
   109   55   56 2    
   110   55   57 1    
   111   57   58 1    
   112   57   59 1    
   113   57  118 1    
   114   58  119 1    
   115   58  120 1    
   116   58  121 1    
   117   59   60 am   BACKBONE|DICT|INTERRES
   118   59  122 1    
   119   60   61 2    
   120   60   62 1    
   121   62   63 1    
   122   62   64 1    
   123   62  123 1    
   124   63  124 1    
   125   63  125 1    
   126   63  126 1    
   127   64   65 am   BACKBONE|DICT|INTERRES
   128   64  127 1    
   129   65   66 2    
@<TRIPOS>SUBSTRUCTURE
     1 UNK         1 GROUP             0       ****    0 ROOT    
