@<TRIPOS>MOLECULE
3R134
127   129    1
SMALL
USER_CHARGES


@<TRIPOS>ATOM
      1 CA         32.3356  -43.4679  -55.8610 C.3       0 UNK        -0.1968 
      2 C          33.8169  -43.7563  -56.0996 C.2       0 UNK         0.4852 
      3 O          34.3015  -43.4873  -57.1974 O.2       0 UNK        -0.5359 
      4 N          34.5875  -44.2888  -55.1400 N.am      1 UNK        -0.4300 
      5 CA         34.2085  -44.7234  -53.7875 C.3       1 UNK         0.0863 
      6 C6         34.6917  -43.7275  -52.6941 C.3       11 UNK        -0.0953 
      7 S7         34.0821  -42.0177  -52.8992 S.3       11 UNK        -0.2369 
      8 C8         32.8089  -41.9012  -51.6025 C.3       11 UNK         0.0226 
      9 C9         31.5186  -42.5843  -52.0266 C.ar      11 UNK        -0.0699 
     10 C10        31.3170  -43.9392  -51.7566 C.ar      11 UNK        -0.0804 
     11 C11        30.1517  -44.5797  -52.1830 C.ar      11 UNK        -0.0871 
     12 C12        29.1597  -43.8434  -52.8370 C.ar      11 UNK        -0.1008 
     13 C13        29.3460  -42.4830  -53.1156 C.ar      11 UNK        -0.0735 
     14 C14        30.5303  -41.8631  -52.7034 C.ar      11 UNK        -0.0945 
     15 C15        28.2894  -41.6486  -53.8426 C.3       11 UNK         0.0169 
     16 S16        27.2584  -42.5671  -55.0387 S.3       11 UNK        -0.2669 
     17 C17        28.5243  -43.2165  -56.1811 C.3       11 UNK        -0.0850 
     18 CA         27.9241  -43.7889  -57.4899 C.3       10 UNK         0.0855 
     19 C          29.0493  -44.3326  -58.4026 C.2       10 UNK         0.5543 
     20 N          29.3612  -43.6428  -59.4902 N.am      10 UNK        -0.7343 
     21 O          29.6691  -45.3519  -58.1058 O.2       10 UNK        -0.5027 
     22 N          26.9598  -44.8620  -57.2235 N.am      10 UNK        -0.4495 
     23 C          25.7312  -44.9458  -57.7430 C.2       10 UNK         0.4903 
     24 O          25.2259  -44.0918  -58.4742 O.2       10 UNK        -0.4860 
     25 CA         24.9527  -46.2243  -57.3854 C.3       9 UNK         0.0227 
     26 CB         23.5275  -46.2657  -57.9773 C.3       9 UNK        -0.1964 
     27 N          25.7144  -47.4271  -57.7370 N.am      9 UNK        -0.4231 
     28 C          26.0991  -47.8317  -58.9578 C.2       9 UNK         0.5014 
     29 O          25.7941  -47.2614  -60.0061 O.2       9 UNK        -0.5270 
     30 CA         26.9916  -49.0854  -59.0320 C.3       8 UNK         0.0284 
     31 CB         28.4548  -48.6820  -59.2765 C.3       8 UNK        -0.1977 
     32 N          26.9270  -49.9316  -57.8375 N.am      8 UNK        -0.4342 
     33 C          25.8710  -50.6702  -57.4688 C.2       8 UNK         0.5039 
     34 O          24.8296  -50.7552  -58.1202 O.2       8 UNK        -0.5547 
     35 CA         25.9924  -51.4198  -56.1339 C.3       7 UNK         0.0281 
     36 CB         26.7575  -52.7415  -56.3156 C.3       7 UNK        -0.1963 
     37 N          26.6597  -50.5980  -55.1218 N.am      7 UNK        -0.4444 
     38 C          26.0459  -49.6706  -54.3738 C.2       7 UNK         0.5104 
     39 O          24.8369  -49.4445  -54.4186 O.2       7 UNK        -0.5100 
     40 CA         26.9289  -48.8441  -53.4219 C.3       6 UNK         0.0396 
     41 CB         27.0375  -49.5305  -52.0518 C.3       6 UNK        -0.1801 
     42 N          28.2736  -48.6077  -53.9483 N.am      6 UNK        -0.4747 
     43 C          28.5587  -47.7871  -54.9697 C.2       6 UNK         0.5012 
     44 O          27.7147  -47.1197  -55.5673 O.2       6 UNK        -0.5003 
     45 CA         30.0323  -47.7179  -55.4179 C.3       5 UNK         0.0782 
     46 C46        30.7986  -46.6162  -54.6474 C.3       11 UNK        -0.0868 
     47 S47        31.1986  -47.0443  -52.9107 S.3       11 UNK        -0.2515 
     48 C48        29.9795  -46.0745  -51.9615 C.3       11 UNK         0.0199 
     49 N          30.7472  -48.9922  -55.3352 N.am      5 UNK        -0.4607 
     50 C          30.3705  -50.1884  -55.8006 C.2       4 UNK         0.5031 
     51 O          29.3362  -50.3778  -56.4391 O.2       4 UNK        -0.5119 
     52 CA         31.2870  -51.3809  -55.4694 C.3       4 UNK         0.0263 
     53 CB         31.9477  -51.9189  -56.7480 C.3       4 UNK        -0.1967 
     54 N          32.3320  -51.0562  -54.4908 N.am      4 UNK        -0.4237 
     55 C          32.1430  -50.7904  -53.1922 C.2       3 UNK         0.4908 
     56 O          31.0457  -50.8704  -52.6392 O.2       3 UNK        -0.5102 
     57 CA         33.3630  -50.3093  -52.3818 C.3       3 UNK         0.0241 
     58 CB         34.2057  -51.5066  -51.9015 C.3       3 UNK        -0.1971 
     59 N          34.2080  -49.2915  -53.0364 N.am      3 UNK        -0.4139 
     60 C          34.9513  -49.3879  -54.1486 C.2       2 UNK         0.5016 
     61 O          34.9622  -50.3843  -54.8743 O.2       2 UNK        -0.5319 
     62 CA         35.8296  -48.1716  -54.5130 C.3       2 UNK         0.0286 
     63 CB         36.5761  -48.3655  -55.8472 C.3       2 UNK        -0.1963 
     64 N          35.1024  -46.8974  -54.5715 N.am      2 UNK        -0.4790 
     65 C          34.7508  -46.1481  -53.5150 C.2       1 UNK         0.5024 
     66 O          34.8673  -46.5479  -52.3555 O.2       1 UNK        -0.4888 
     67 H67        32.0364  -42.5886  -56.4306 H         1 UNK         0.0892 
     68 H68        32.0994  -43.2612  -54.8197 H         1 UNK         0.0892 
     69 H69        31.7285  -44.3027  -56.2058 H         1 UNK         0.0892 
     70 H70        35.5674  -44.4187  -55.3516 H         1 UNK         0.3107 
     71 H71        33.1276  -44.8237  -53.7117 H         1 UNK         0.0773 
     72 H72        35.7823  -43.6807  -52.6908 H         1 UNK         0.0680 
     73 H73        34.4113  -44.0781  -51.6998 H         1 UNK         0.0680 
     74 H74        33.1823  -42.3255  -50.6694 H         1 UNK         0.0650 
     75 H75        32.6168  -40.8468  -51.3981 H         1 UNK         0.0650 
     76 H76        32.0807  -44.5078  -51.2441 H         1 UNK         0.1397 
     77 H77        28.2512  -44.3397  -53.1488 H         1 UNK         0.1363 
     78 H78        30.6883  -40.8139  -52.9135 H         1 UNK         0.1355 
     79 H79        28.7656  -40.8219  -54.3724 H         1 UNK         0.0707 
     80 H80        27.6337  -41.1987  -53.0962 H         1 UNK         0.0707 
     81 H81        29.0957  -43.9834  -55.6599 H         1 UNK         0.1034 
     82 H82        29.2276  -42.4132  -56.4092 H         1 UNK         0.1034 
     83 H83        27.4267  -42.9663  -58.0076 H         1 UNK         0.0482 
     84 H84        30.1031  -43.9781  -60.0842 H         1 UNK         0.3460 
     85 H85        28.8635  -42.8015  -59.7370 H         1 UNK         0.3460 
     86 H86        27.3028  -45.6367  -56.6609 H         1 UNK         0.2989 
     87 H87        24.8557  -46.2333  -56.2986 H         1 UNK         0.0559 
     88 H88        23.5343  -46.2163  -59.0664 H         1 UNK         0.0848 
     89 H89        22.9350  -45.4227  -57.6200 H         1 UNK         0.0848 
     90 H90        23.0044  -47.1767  -57.6863 H         1 UNK         0.0848 
     91 H91        26.0933  -47.9358  -56.9489 H         1 UNK         0.3144 
     92 H92        26.6523  -49.6792  -59.8833 H         1 UNK         0.0727 
     93 H93        29.0981  -49.5560  -59.3802 H         1 UNK         0.0790 
     94 H94        28.8441  -48.0735  -58.4602 H         1 UNK         0.0790 
     95 H95        28.5518  -48.0959  -60.1915 H         1 UNK         0.0790 
     96 H96        27.7746  -49.9906  -57.2743 H         1 UNK         0.3215 
     97 H97        24.9834  -51.6594  -55.7903 H         1 UNK         0.0863 
     98 H98        26.8095  -53.3002  -55.3811 H         1 UNK         0.0808 
     99 H99        27.7773  -52.5800  -56.6666 H         1 UNK         0.0808 
    100 H100       26.2599  -53.3800  -57.0468 H         1 UNK         0.0808 
    101 H101       27.6677  -50.6695  -55.0714 H         1 UNK         0.3118 
    102 H102       26.4456  -47.8752  -53.2787 H         1 UNK         0.0546 
    103 H103       26.0496  -49.7047  -51.6230 H         1 UNK         0.0828 
    104 H104       27.5929  -48.9156  -51.3434 H         1 UNK         0.0828 
    105 H105       27.5385  -50.4970  -52.1214 H         1 UNK         0.0828 
    106 H106       29.0362  -49.1084  -53.5109 H         1 UNK         0.3005 
    107 H107       30.0169  -47.4401  -56.4731 H         1 UNK         0.1257 
    108 H108       30.2639  -45.6691  -54.6911 H         1 UNK         0.0775 
    109 H109       31.7474  -46.4350  -55.1531 H         1 UNK         0.0775 
    110 H110       28.9718  -46.3971  -52.2266 H         1 UNK         0.0840 
    111 H111       30.1013  -46.2961  -50.9004 H         1 UNK         0.0840 
    112 H112       31.6028  -48.9623  -54.8017 H         1 UNK         0.2987 
    113 H113       30.6563  -52.1661  -55.0476 H         1 UNK         0.0785 
    114 H114       31.1977  -52.1961  -57.4904 H         1 UNK         0.0798 
    115 H115       32.5424  -52.8091  -56.5421 H         1 UNK         0.0798 
    116 H116       32.6028  -51.1764  -57.2058 H         1 UNK         0.0798 
    117 H117       33.2841  -50.9504  -54.8427 H         1 UNK         0.3079 
    118 H118       32.9620  -49.8182  -51.4935 H         1 UNK         0.0794 
    119 H119       34.6529  -52.0519  -52.7333 H         1 UNK         0.0786 
    120 H120       33.5929  -52.2149  -51.3422 H         1 UNK         0.0786 
    121 H121       35.0108  -51.1841  -51.2413 H         1 UNK         0.0786 
    122 H122       34.2596  -48.3993  -52.5513 H         1 UNK         0.3032 
    123 H123       36.5857  -48.0984  -53.7275 H         1 UNK         0.1094 
    124 H124       37.2477  -47.5317  -56.0526 H         1 UNK         0.0794 
    125 H125       37.1872  -49.2691  -55.8281 H         1 UNK         0.0794 
    126 H126       35.8856  -48.4565  -56.6867 H         1 UNK         0.0794 
    127 H127       34.9196  -46.5322  -55.4954 H         1 UNK         0.3016 
@<TRIPOS>BOND
     1    1    2 1    
     2    1   67 1    
     3    1   68 1    
     4    1   69 1    
     5    2    3 2    
     6    2    4 am   BACKBONE|DICT|INTERRES
     7    4    5 1    
     8    4   70 1    
     9    5    6 1    
    10    5   65 1    
    11    5   71 1    
    12    6    7 1    
    13    6   72 1    
    14    6   73 1    
    15    7    8 1    
    16    8    9 1    
    17    8   74 1    
    18    8   75 1    
    19    9   10 ar   
    20    9   14 ar   
    21   10   11 ar   
    22   10   76 1    
    23   11   12 ar   
    24   11   48 1    
    25   12   13 ar   
    26   12   77 1    
    27   13   14 ar   
    28   13   15 1    
    29   14   78 1    
    30   15   16 1    
    31   15   79 1    
    32   15   80 1    
    33   16   17 1    
    34   17   18 1    
    35   17   81 1    
    36   17   82 1    
    37   18   19 1    
    38   18   22 1    
    39   18   83 1    
    40   19   20 am   BACKBONE|DICT|INTERRES
    41   19   21 2    
    42   20   84 1    
    43   20   85 1    
    44   22   23 am   BACKBONE|DICT|INTERRES
    45   22   86 1    
    46   23   24 2    
    47   23   25 1    
    48   25   26 1    
    49   25   27 1    
    50   25   87 1    
    51   26   88 1    
    52   26   89 1    
    53   26   90 1    
    54   27   28 am   BACKBONE|DICT|INTERRES
    55   27   91 1    
    56   28   29 2    
    57   28   30 1    
    58   30   31 1    
    59   30   32 1    
    60   30   92 1    
    61   31   93 1    
    62   31   94 1    
    63   31   95 1    
    64   32   33 am   BACKBONE|DICT|INTERRES
    65   32   96 1    
    66   33   34 2    
    67   33   35 1    
    68   35   36 1    
    69   35   37 1    
    70   35   97 1    
    71   36   98 1    
    72   36   99 1    
    73   36  100 1    
    74   37   38 am   BACKBONE|DICT|INTERRES
    75   37  101 1    
    76   38   39 2    
    77   38   40 1    
    78   40   41 1    
    79   40   42 1    
    80   40  102 1    
    81   41  103 1    
    82   41  104 1    
    83   41  105 1    
    84   42   43 am   BACKBONE|DICT|INTERRES
    85   42  106 1    
    86   43   44 2    
    87   43   45 1    
    88   45   46 1    
    89   45   49 1    
    90   45  107 1    
    91   46   47 1    
    92   46  108 1    
    93   46  109 1    
    94   47   48 1    
    95   48  110 1    
    96   48  111 1    
    97   49   50 am   BACKBONE|DICT|INTERRES
    98   49  112 1    
    99   50   51 2    
   100   50   52 1    
   101   52   53 1    
   102   52   54 1    
   103   52  113 1    
   104   53  114 1    
   105   53  115 1    
   106   53  116 1    
   107   54   55 am   BACKBONE|DICT|INTERRES
   108   54  117 1    
   109   55   56 2    
   110   55   57 1    
   111   57   58 1    
   112   57   59 1    
   113   57  118 1    
   114   58  119 1    
   115   58  120 1    
   116   58  121 1    
   117   59   60 am   BACKBONE|DICT|INTERRES
   118   59  122 1    
   119   60   61 2    
   120   60   62 1    
   121   62   63 1    
   122   62   64 1    
   123   62  123 1    
   124   63  124 1    
   125   63  125 1    
   126   63  126 1    
   127   64   65 am   BACKBONE|DICT|INTERRES
   128   64  127 1    
   129   65   66 2    
@<TRIPOS>SUBSTRUCTURE
     1 UNK         1 GROUP             0       ****    0 ROOT    
