@<TRIPOS>MOLECULE
3R134
127   129    1
SMALL
USER_CHARGES


@<TRIPOS>ATOM
      1 CA         30.4527  -44.5069  -48.4492 C.3       0 UNK        -0.1968 
      2 C          31.8157  -45.1749  -48.5556 C.2       0 UNK         0.4852 
      3 O          32.3007  -45.7360  -47.5722 O.2       0 UNK        -0.5359 
      4 N          32.4352  -45.1202  -49.7423 N.am      1 UNK        -0.4300 
      5 CA         33.7425  -45.7197  -50.0404 C.3       1 UNK         0.0863 
      6 C6         34.3959  -45.0826  -51.2943 C.3       11 UNK        -0.0953 
      7 S7         33.3417  -45.1089  -52.7883 S.3       11 UNK        -0.2369 
      8 C8         33.7392  -43.4802  -53.4947 C.3       11 UNK         0.0226 
      9 C9         32.9777  -43.2355  -54.7871 C.ar      11 UNK        -0.0699 
     10 C10        33.5198  -43.6372  -56.0121 C.ar      11 UNK        -0.0804 
     11 C11        32.8106  -43.4318  -57.1997 C.ar      11 UNK        -0.0871 
     12 C12        31.5723  -42.7791  -57.1590 C.ar      11 UNK        -0.1008 
     13 C13        31.0076  -42.4021  -55.9377 C.ar      11 UNK        -0.0735 
     14 C14        31.7200  -42.6251  -54.7554 C.ar      11 UNK        -0.0945 
     15 C15        29.6172  -41.7824  -55.8878 C.3       11 UNK         0.0169 
     16 S16        28.3131  -43.0577  -55.8011 S.3       11 UNK        -0.2669 
     17 C17        28.0832  -43.5006  -57.5597 C.3       11 UNK        -0.0850 
     18 CA         26.6173  -43.8796  -57.9059 C.3       10 UNK         0.0855 
     19 C          26.4051  -43.9940  -59.4460 C.2       10 UNK         0.5543 
     20 N          25.8571  -45.0811  -59.9778 N.am      10 UNK        -0.7343 
     21 O          26.7363  -43.0652  -60.1787 O.2       10 UNK        -0.5027 
     22 N          26.1712  -45.0680  -57.1597 N.am      10 UNK        -0.4495 
     23 C          24.9056  -45.3073  -56.7965 C.2       10 UNK         0.4903 
     24 O          23.9827  -44.5110  -56.9794 O.2       10 UNK        -0.4860 
     25 CA         24.6250  -46.6654  -56.1210 C.3       9 UNK         0.0227 
     26 CB         23.1189  -46.9906  -56.0309 C.3       9 UNK        -0.1964 
     27 N          25.3547  -47.7906  -56.7208 N.am      9 UNK        -0.4231 
     28 C          25.3106  -48.2106  -57.9960 C.2       9 UNK         0.5014 
     29 O          24.6453  -47.6489  -58.8678 O.2       9 UNK        -0.5270 
     30 CA         26.1531  -49.4444  -58.3914 C.3       8 UNK         0.0284 
     31 CB         27.0366  -49.1383  -59.6143 C.3       8 UNK        -0.1977 
     32 N          27.0042  -49.9522  -57.3116 N.am      8 UNK        -0.4342 
     33 C          26.6073  -50.7573  -56.3164 C.2       8 UNK         0.5039 
     34 O          25.4814  -51.2492  -56.2409 O.2       8 UNK        -0.5547 
     35 CA         27.6200  -51.0014  -55.1795 C.3       7 UNK         0.0281 
     36 CB         28.5402  -52.1875  -55.5071 C.3       7 UNK        -0.1963 
     37 N          28.4277  -49.8128  -54.8809 N.am      7 UNK        -0.4444 
     38 C          27.9259  -48.6493  -54.4397 C.2       7 UNK         0.5104 
     39 O          26.7452  -48.4853  -54.1360 O.2       7 UNK        -0.5100 
     40 CA         28.8771  -47.4453  -54.4141 C.3       6 UNK         0.0396 
     41 CB         29.6554  -47.3761  -53.0907 C.3       6 UNK        -0.1801 
     42 N          29.8092  -47.4723  -55.5410 N.am      6 UNK        -0.4747 
     43 C          29.4758  -47.2174  -56.8155 C.2       6 UNK         0.5012 
     44 O          28.3378  -46.9285  -57.1804 O.2       6 UNK        -0.5003 
     45 CA         30.6207  -47.2822  -57.8479 C.3       5 UNK         0.0782 
     46 C46        31.4012  -45.9550  -57.7502 C.3       11 UNK        -0.0868 
     47 S47        32.9808  -45.8218  -58.6506 S.3       11 UNK        -0.2515 
     48 C48        33.3182  -44.0212  -58.5132 C.3       11 UNK         0.0199 
     49 N          31.4688  -48.4586  -57.6507 N.am      5 UNK        -0.4607 
     50 C          31.0477  -49.7289  -57.7304 C.2       4 UNK         0.5031 
     51 O          29.9066  -50.0502  -58.0597 O.2       4 UNK        -0.5119 
     52 CA         32.0492  -50.8199  -57.3052 C.3       4 UNK         0.0263 
     53 CB         32.8574  -51.3085  -58.5172 C.3       4 UNK        -0.1967 
     54 N          32.9666  -50.3864  -56.2427 N.am      4 UNK        -0.4237 
     55 C          32.5793  -49.9284  -55.0436 C.2       3 UNK         0.4908 
     56 O          31.3992  -49.8807  -54.6845 O.2       3 UNK        -0.5102 
     57 CA         33.6886  -49.3502  -54.1480 C.3       3 UNK         0.0241 
     58 CB         34.2922  -48.0844  -54.7858 C.3       3 UNK        -0.1971 
     59 N          33.1788  -48.9954  -52.8242 N.am      3 UNK        -0.4139 
     60 C          32.9013  -49.8597  -51.8390 C.2       2 UNK         0.5016 
     61 O          33.1337  -51.0685  -51.9058 O.2       2 UNK        -0.5319 
     62 CA         32.2404  -49.2704  -50.5734 C.3       2 UNK         0.0286 
     63 CB         32.5632  -50.0803  -49.2991 C.3       2 UNK        -0.1963 
     64 N          32.5145  -47.8376  -50.3729 N.am      2 UNK        -0.4790 
     65 C          33.7078  -47.2609  -50.1478 C.2       1 UNK         0.5024 
     66 O          34.7630  -47.8878  -50.0453 O.2       1 UNK        -0.4888 
     67 H67        29.6978  -45.2382  -48.1618 H         1 UNK         0.0892 
     68 H68        30.4766  -43.7255  -47.6901 H         1 UNK         0.0892 
     69 H69        30.1448  -44.0542  -49.3916 H         1 UNK         0.0892 
     70 H70        31.9971  -44.6403  -50.5163 H         1 UNK         0.3107 
     71 H71        34.3981  -45.4989  -49.1949 H         1 UNK         0.0773 
     72 H72        34.6515  -44.0474  -51.0630 H         1 UNK         0.0680 
     73 H73        35.3454  -45.5670  -51.5307 H         1 UNK         0.0680 
     74 H74        34.8134  -43.4181  -53.6760 H         1 UNK         0.0650 
     75 H75        33.5012  -42.7010  -52.7689 H         1 UNK         0.0650 
     76 H76        34.4712  -44.1511  -56.0365 H         1 UNK         0.1397 
     77 H77        31.0142  -42.6280  -58.0728 H         1 UNK         0.1363 
     78 H78        31.2874  -42.3387  -53.8064 H         1 UNK         0.1355 
     79 H79        29.4567  -41.1295  -56.7469 H         1 UNK         0.0707 
     80 H80        29.5327  -41.1428  -55.0079 H         1 UNK         0.0707 
     81 H81        28.4090  -42.6584  -58.1724 H         1 UNK         0.1034 
     82 H82        28.7472  -44.3262  -57.8036 H         1 UNK         0.1034 
     83 H83        25.9957  -43.0370  -57.5975 H         1 UNK         0.0482 
     84 H84        25.5369  -45.8475  -59.3976 H         1 UNK         0.3460 
     85 H85        25.7267  -45.1243  -60.9756 H         1 UNK         0.3460 
     86 H86        26.8741  -45.7914  -57.0251 H         1 UNK         0.2989 
     87 H87        25.0004  -46.5724  -55.1012 H         1 UNK         0.0559 
     88 H88        22.5833  -46.2207  -55.4742 H         1 UNK         0.0848 
     89 H89        22.9477  -47.9366  -55.5173 H         1 UNK         0.0848 
     90 H90        22.6604  -47.0568  -57.0182 H         1 UNK         0.0848 
     91 H91        25.9529  -48.2950  -56.0771 H         1 UNK         0.3144 
     92 H92        25.4494  -50.2293  -58.6757 H         1 UNK         0.0727 
     93 H93        27.7367  -48.3273  -59.4136 H         1 UNK         0.0790 
     94 H94        26.4328  -48.8416  -60.4728 H         1 UNK         0.0790 
     95 H95        27.6154  -50.0122  -59.9144 H         1 UNK         0.0790 
     96 H96        27.9741  -49.6541  -57.3298 H         1 UNK         0.3215 
     97 H97        27.0535  -51.2482  -54.2790 H         1 UNK         0.0863 
     98 H98        29.2565  -52.3698  -54.7055 H         1 UNK         0.0808 
     99 H99        29.1003  -52.0239  -56.4273 H         1 UNK         0.0808 
    100 H100       27.9605  -53.1018  -55.6398 H         1 UNK         0.0808 
    101 H101       29.4283  -49.8689  -55.0496 H         1 UNK         0.3118 
    102 H102       28.2733  -46.5386  -54.4975 H         1 UNK         0.0546 
    103 H103       30.2560  -48.2700  -52.9268 H         1 UNK         0.0828 
    104 H104       28.9726  -47.2844  -52.2452 H         1 UNK         0.0828 
    105 H105       30.3199  -46.5121  -53.0662 H         1 UNK         0.0828 
    106 H106       30.7507  -47.7781  -55.3380 H         1 UNK         0.3005 
    107 H107       30.1748  -47.3584  -58.8422 H         1 UNK         0.1257 
    108 H108       30.7620  -45.1539  -58.1162 H         1 UNK         0.0775 
    109 H109       31.6232  -45.7298  -56.7044 H         1 UNK         0.0775 
    110 H110       34.3913  -43.8489  -58.6083 H         1 UNK         0.0840 
    111 H111       32.8533  -43.5113  -59.3585 H         1 UNK         0.0840 
    112 H112       32.4310  -48.2781  -57.4066 H         1 UNK         0.2987 
    113 H113       31.4720  -51.6609  -56.9163 H         1 UNK         0.0785 
    114 H114       32.1953  -51.6565  -59.3116 H         1 UNK         0.0798 
    115 H115       33.5069  -52.1429  -58.2518 H         1 UNK         0.0798 
    116 H116       33.4796  -50.5163  -58.9355 H         1 UNK         0.0798 
    117 H117       33.9519  -50.3955  -56.4653 H         1 UNK         0.3079 
    118 H118       34.4707  -50.1038  -54.0342 H         1 UNK         0.0794 
    119 H119       35.0457  -47.6359  -54.1375 H         1 UNK         0.0786 
    120 H120       33.5324  -47.3265  -54.9833 H         1 UNK         0.0786 
    121 H121       34.7832  -48.3073  -55.7336 H         1 UNK         0.0786 
    122 H122       32.9485  -48.0242  -52.6765 H         1 UNK         0.3032 
    123 H123       31.1655  -49.3526  -50.7431 H         1 UNK         0.1094 
    124 H124       32.2083  -51.1078  -49.3882 H         1 UNK         0.0794 
    125 H125       33.6353  -50.1251  -49.1061 H         1 UNK         0.0794 
    126 H126       32.0816  -49.6484  -48.4217 H         1 UNK         0.0794 
    127 H127       31.7135  -47.2247  -50.4327 H         1 UNK         0.3016 
@<TRIPOS>BOND
     1    1    2 1    
     2    1   67 1    
     3    1   68 1    
     4    1   69 1    
     5    2    3 2    
     6    2    4 am   BACKBONE|DICT|INTERRES
     7    4    5 1    
     8    4   70 1    
     9    5    6 1    
    10    5   65 1    
    11    5   71 1    
    12    6    7 1    
    13    6   72 1    
    14    6   73 1    
    15    7    8 1    
    16    8    9 1    
    17    8   74 1    
    18    8   75 1    
    19    9   10 ar   
    20    9   14 ar   
    21   10   11 ar   
    22   10   76 1    
    23   11   12 ar   
    24   11   48 1    
    25   12   13 ar   
    26   12   77 1    
    27   13   14 ar   
    28   13   15 1    
    29   14   78 1    
    30   15   16 1    
    31   15   79 1    
    32   15   80 1    
    33   16   17 1    
    34   17   18 1    
    35   17   81 1    
    36   17   82 1    
    37   18   19 1    
    38   18   22 1    
    39   18   83 1    
    40   19   20 am   BACKBONE|DICT|INTERRES
    41   19   21 2    
    42   20   84 1    
    43   20   85 1    
    44   22   23 am   BACKBONE|DICT|INTERRES
    45   22   86 1    
    46   23   24 2    
    47   23   25 1    
    48   25   26 1    
    49   25   27 1    
    50   25   87 1    
    51   26   88 1    
    52   26   89 1    
    53   26   90 1    
    54   27   28 am   BACKBONE|DICT|INTERRES
    55   27   91 1    
    56   28   29 2    
    57   28   30 1    
    58   30   31 1    
    59   30   32 1    
    60   30   92 1    
    61   31   93 1    
    62   31   94 1    
    63   31   95 1    
    64   32   33 am   BACKBONE|DICT|INTERRES
    65   32   96 1    
    66   33   34 2    
    67   33   35 1    
    68   35   36 1    
    69   35   37 1    
    70   35   97 1    
    71   36   98 1    
    72   36   99 1    
    73   36  100 1    
    74   37   38 am   BACKBONE|DICT|INTERRES
    75   37  101 1    
    76   38   39 2    
    77   38   40 1    
    78   40   41 1    
    79   40   42 1    
    80   40  102 1    
    81   41  103 1    
    82   41  104 1    
    83   41  105 1    
    84   42   43 am   BACKBONE|DICT|INTERRES
    85   42  106 1    
    86   43   44 2    
    87   43   45 1    
    88   45   46 1    
    89   45   49 1    
    90   45  107 1    
    91   46   47 1    
    92   46  108 1    
    93   46  109 1    
    94   47   48 1    
    95   48  110 1    
    96   48  111 1    
    97   49   50 am   BACKBONE|DICT|INTERRES
    98   49  112 1    
    99   50   51 2    
   100   50   52 1    
   101   52   53 1    
   102   52   54 1    
   103   52  113 1    
   104   53  114 1    
   105   53  115 1    
   106   53  116 1    
   107   54   55 am   BACKBONE|DICT|INTERRES
   108   54  117 1    
   109   55   56 2    
   110   55   57 1    
   111   57   58 1    
   112   57   59 1    
   113   57  118 1    
   114   58  119 1    
   115   58  120 1    
   116   58  121 1    
   117   59   60 am   BACKBONE|DICT|INTERRES
   118   59  122 1    
   119   60   61 2    
   120   60   62 1    
   121   62   63 1    
   122   62   64 1    
   123   62  123 1    
   124   63  124 1    
   125   63  125 1    
   126   63  126 1    
   127   64   65 am   BACKBONE|DICT|INTERRES
   128   64  127 1    
   129   65   66 2    
@<TRIPOS>SUBSTRUCTURE
     1 UNK         1 GROUP             0       ****    0 ROOT    
