@<TRIPOS>MOLECULE
3R134
127   129    1
SMALL
USER_CHARGES


@<TRIPOS>ATOM
      1 CA         32.6768  -43.4669  -59.1098 C.3       0 UNK        -0.1968 
      2 C          32.6429  -44.7906  -58.3598 C.2       0 UNK         0.4852 
      3 O          33.7015  -45.3597  -58.0917 O.2       0 UNK        -0.5359 
      4 N          31.4318  -45.2590  -58.0288 N.am      1 UNK        -0.4300 
      5 CA         31.0869  -46.4983  -57.3221 C.3       1 UNK         0.0863 
      6 C6         31.1271  -46.3660  -55.7716 C.3       11 UNK        -0.0953 
      7 S7         32.7785  -46.2516  -54.9869 S.3       11 UNK        -0.2369 
      8 C8         32.9184  -44.4825  -54.5648 C.3       11 UNK         0.0226 
      9 C9         31.8915  -44.0611  -53.5238 C.ar      11 UNK        -0.0699 
     10 C10        32.1089  -44.3087  -52.1656 C.ar      11 UNK        -0.0804 
     11 C11        31.1354  -43.9697  -51.2191 C.ar      11 UNK        -0.0871 
     12 C12        29.9309  -43.3980  -51.6449 C.ar      11 UNK        -0.1008 
     13 C13        29.7115  -43.1323  -53.0002 C.ar      11 UNK        -0.0735 
     14 C14        30.7109  -43.4342  -53.9267 C.ar      11 UNK        -0.0945 
     15 C15        28.3948  -42.5282  -53.4666 C.3       11 UNK         0.0169 
     16 S16        27.2133  -43.8198  -53.9746 S.3       11 UNK        -0.2669 
     17 C17        27.7620  -44.2103  -55.6758 C.3       11 UNK        -0.0850 
     18 CA         26.6539  -44.0151  -56.7517 C.3       10 UNK         0.0855 
     19 C          26.3754  -42.5213  -57.1221 C.2       10 UNK         0.5543 
     20 N          25.8649  -42.2327  -58.3138 N.am      10 UNK        -0.7343 
     21 O          26.6041  -41.6104  -56.3312 O.2       10 UNK        -0.5027 
     22 N          26.8627  -44.8832  -57.9265 N.am      10 UNK        -0.4495 
     23 C          27.9005  -44.8198  -58.7703 C.2       10 UNK         0.4903 
     24 O          28.8923  -44.1110  -58.5860 O.2       10 UNK        -0.4860 
     25 CA         27.8138  -45.6936  -60.0364 C.3       9 UNK         0.0227 
     26 CB         28.9034  -45.3371  -61.0663 C.3       9 UNK        -0.1964 
     27 N          27.9000  -47.1249  -59.7469 N.am      9 UNK        -0.4231 
     28 C          26.9377  -47.8867  -59.2102 C.2       9 UNK         0.5014 
     29 O          25.8414  -47.4505  -58.8511 O.2       9 UNK        -0.5270 
     30 CA         27.2257  -49.3983  -59.0792 C.3       8 UNK         0.0284 
     31 CB         28.5767  -49.8397  -59.6876 C.3       8 UNK        -0.1977 
     32 N          27.1140  -49.8763  -57.6963 N.am      8 UNK        -0.4342 
     33 C          27.7844  -49.4114  -56.6340 C.2       8 UNK         0.5039 
     34 O          28.5972  -48.4869  -56.6760 O.2       8 UNK        -0.5547 
     35 CA         27.5356  -50.1226  -55.2989 C.3       7 UNK         0.0281 
     36 CB         28.6728  -51.1123  -54.9973 C.3       7 UNK        -0.1963 
     37 N          27.4751  -49.1204  -54.2390 N.am      7 UNK        -0.4444 
     38 C          26.3524  -48.5045  -53.8479 C.2       7 UNK         0.5104 
     39 O          25.2339  -48.8186  -54.2589 O.2       7 UNK        -0.5100 
     40 CA         26.4772  -47.3160  -52.8714 C.3       6 UNK         0.0396 
     41 CB         25.4428  -47.3903  -51.7282 C.3       6 UNK        -0.1801 
     42 N          27.8318  -47.0708  -52.3519 N.am      6 UNK        -0.4747 
     43 C          28.5377  -47.8591  -51.5283 C.2       6 UNK         0.5012 
     44 O          28.1206  -48.9229  -51.0640 O.2       6 UNK        -0.5003 
     45 CA         29.9509  -47.3730  -51.1543 C.3       5 UNK         0.0782 
     46 C46        29.9224  -46.6309  -49.7960 C.3       11 UNK        -0.0868 
     47 S47        31.5619  -45.9787  -49.3336 S.3       11 UNK        -0.2515 
     48 C48        31.3882  -44.2112  -49.7364 C.3       11 UNK         0.0199 
     49 N          30.8952  -48.4938  -51.1474 N.am      5 UNK        -0.4607 
     50 C          31.2695  -49.1768  -52.2335 C.2       4 UNK         0.5031 
     51 O          30.8662  -48.9334  -53.3729 O.2       4 UNK        -0.5119 
     52 CA         32.2329  -50.3502  -52.0032 C.3       4 UNK         0.0263 
     53 CB         31.4691  -51.6838  -52.0198 C.3       4 UNK        -0.1967 
     54 N          33.2563  -50.3717  -53.0439 N.am      4 UNK        -0.4237 
     55 C          34.2972  -49.5348  -53.1153 C.2       3 UNK         0.4908 
     56 O          34.6052  -48.7501  -52.2174 O.2       3 UNK        -0.5102 
     57 CA         35.1297  -49.5577  -54.4107 C.3       3 UNK         0.0241 
     58 CB         36.1312  -50.7297  -54.4182 C.3       3 UNK        -0.1971 
     59 N          34.3212  -49.5144  -55.6396 N.am      3 UNK        -0.4139 
     60 C          33.4866  -50.4407  -56.1359 C.2       2 UNK         0.5016 
     61 O          33.2906  -51.5418  -55.6179 O.2       2 UNK        -0.5319 
     62 CA         32.6849  -50.0160  -57.3723 C.3       2 UNK         0.0286 
     63 CB         31.6800  -51.0816  -57.8510 C.3       2 UNK        -0.1963 
     64 N          31.9926  -48.7699  -57.0551 N.am      2 UNK        -0.4790 
     65 C          31.7298  -47.7773  -57.9107 C.2       1 UNK         0.5024 
     66 O          31.9386  -47.8569  -59.1241 O.2       1 UNK        -0.4888 
     67 H67        31.6758  -43.0712  -59.2841 H         1 UNK         0.0892 
     68 H68        33.2390  -42.7275  -58.5402 H         1 UNK         0.0892 
     69 H69        33.1629  -43.5959  -60.0765 H         1 UNK         0.0892 
     70 H70        30.6165  -44.7164  -58.3068 H         1 UNK         0.3107 
     71 H71        30.0336  -46.6207  -57.5706 H         1 UNK         0.0773 
     72 H72        30.6056  -47.2087  -55.3175 H         1 UNK         0.0680 
     73 H73        30.5271  -45.5075  -55.4868 H         1 UNK         0.0680 
     74 H74        32.8159  -43.8858  -55.4719 H         1 UNK         0.0650 
     75 H75        33.9229  -44.2909  -54.1855 H         1 UNK         0.0650 
     76 H76        33.0289  -44.7795  -51.8462 H         1 UNK         0.1397 
     77 H77        29.1644  -43.1527  -50.9222 H         1 UNK         0.1363 
     78 H78        30.5605  -43.2149  -54.9733 H         1 UNK         0.1355 
     79 H79        27.9479  -41.9455  -52.6597 H         1 UNK         0.0707 
     80 H80        28.5616  -41.8285  -54.2871 H         1 UNK         0.0707 
     81 H81        28.6404  -43.6260  -55.9445 H         1 UNK         0.1034 
     82 H82        28.0872  -45.2519  -55.6667 H         1 UNK         0.1034 
     83 H83        25.7191  -44.3714  -56.3176 H         1 UNK         0.0482 
     84 H84        25.6572  -42.9644  -58.9739 H         1 UNK         0.3460 
     85 H85        25.6813  -41.2704  -58.5507 H         1 UNK         0.3460 
     86 H86        26.1290  -45.5537  -58.1327 H         1 UNK         0.2989 
     87 H87        26.8454  -45.4945  -60.5000 H         1 UNK         0.0559 
     88 H88        28.8718  -44.2761  -61.3185 H         1 UNK         0.0848 
     89 H89        28.7675  -45.8907  -61.9955 H         1 UNK         0.0848 
     90 H90        29.9049  -45.5534  -60.6916 H         1 UNK         0.0848 
     91 H91        28.7739  -47.5751  -59.9771 H         1 UNK         0.3144 
     92 H92        26.4365  -49.9008  -59.6403 H         1 UNK         0.0727 
     93 H93        28.7091  -50.9184  -59.6023 H         1 UNK         0.0790 
     94 H94        29.4220  -49.3662  -59.1883 H         1 UNK         0.0790 
     95 H95        28.6344  -49.5980  -60.7498 H         1 UNK         0.0790 
     96 H96        26.4412  -50.6159  -57.5487 H         1 UNK         0.3215 
     97 H97        26.5956  -50.6771  -55.3434 H         1 UNK         0.0863 
     98 H98        28.5440  -51.5803  -54.0213 H         1 UNK         0.0808 
     99 H99        29.6476  -50.6232  -55.0080 H         1 UNK         0.0808 
    100 H100       28.7025  -51.9098  -55.7406 H         1 UNK         0.0808 
    101 H101       28.3640  -48.7712  -53.9068 H         1 UNK         0.3118 
    102 H102       26.2255  -46.4398  -53.4669 H         1 UNK         0.0546 
    103 H103       24.4257  -47.4007  -52.1219 H         1 UNK         0.0828 
    104 H104       25.5211  -46.5285  -51.0656 H         1 UNK         0.0828 
    105 H105       25.5624  -48.2911  -51.1262 H         1 UNK         0.0828 
    106 H106       28.2578  -46.2133  -52.6794 H         1 UNK         0.3005 
    107 H107       30.2874  -46.6753  -51.9253 H         1 UNK         0.1257 
    108 H108       29.5896  -47.3005  -49.0004 H         1 UNK         0.0775 
    109 H109       29.2033  -45.8097  -49.8183 H         1 UNK         0.0775 
    110 H110       30.5905  -43.7828  -49.1273 H         1 UNK         0.0840 
    111 H111       32.3031  -43.6935  -49.4450 H         1 UNK         0.0840 
    112 H112       31.2554  -48.7613  -50.2436 H         1 UNK         0.2987 
    113 H113       32.7202  -50.2360  -51.0324 H         1 UNK         0.0785 
    114 H114       32.1344  -52.5243  -51.8219 H         1 UNK         0.0798 
    115 H115       30.9859  -51.8584  -52.9821 H         1 UNK         0.0798 
    116 H116       30.6901  -51.6977  -51.2562 H         1 UNK         0.0798 
    117 H117       33.0773  -50.9546  -53.8583 H         1 UNK         0.3079 
    118 H118       35.7125  -48.6350  -54.4178 H         1 UNK         0.0794 
    119 H119       36.7910  -50.6799  -53.5511 H         1 UNK         0.0786 
    120 H120       36.7618  -50.7060  -55.3069 H         1 UNK         0.0786 
    121 H121       35.6320  -51.6985  -54.3870 H         1 UNK         0.0786 
    122 H122       34.3467  -48.6259  -56.1228 H         1 UNK         0.3032 
    123 H123       33.4101  -49.8422  -58.1709 H         1 UNK         0.1094 
    124 H124       31.2353  -50.8006  -58.8042 H         1 UNK         0.0794 
    125 H125       32.1692  -52.0448  -58.0014 H         1 UNK         0.0794 
    126 H126       30.8749  -51.2294  -57.1313 H         1 UNK         0.0794 
    127 H127       31.7683  -48.6273  -56.0771 H         1 UNK         0.3016 
@<TRIPOS>BOND
     1    1    2 1    
     2    1   67 1    
     3    1   68 1    
     4    1   69 1    
     5    2    3 2    
     6    2    4 am   BACKBONE|DICT|INTERRES
     7    4    5 1    
     8    4   70 1    
     9    5    6 1    
    10    5   65 1    
    11    5   71 1    
    12    6    7 1    
    13    6   72 1    
    14    6   73 1    
    15    7    8 1    
    16    8    9 1    
    17    8   74 1    
    18    8   75 1    
    19    9   10 ar   
    20    9   14 ar   
    21   10   11 ar   
    22   10   76 1    
    23   11   12 ar   
    24   11   48 1    
    25   12   13 ar   
    26   12   77 1    
    27   13   14 ar   
    28   13   15 1    
    29   14   78 1    
    30   15   16 1    
    31   15   79 1    
    32   15   80 1    
    33   16   17 1    
    34   17   18 1    
    35   17   81 1    
    36   17   82 1    
    37   18   19 1    
    38   18   22 1    
    39   18   83 1    
    40   19   20 am   BACKBONE|DICT|INTERRES
    41   19   21 2    
    42   20   84 1    
    43   20   85 1    
    44   22   23 am   BACKBONE|DICT|INTERRES
    45   22   86 1    
    46   23   24 2    
    47   23   25 1    
    48   25   26 1    
    49   25   27 1    
    50   25   87 1    
    51   26   88 1    
    52   26   89 1    
    53   26   90 1    
    54   27   28 am   BACKBONE|DICT|INTERRES
    55   27   91 1    
    56   28   29 2    
    57   28   30 1    
    58   30   31 1    
    59   30   32 1    
    60   30   92 1    
    61   31   93 1    
    62   31   94 1    
    63   31   95 1    
    64   32   33 am   BACKBONE|DICT|INTERRES
    65   32   96 1    
    66   33   34 2    
    67   33   35 1    
    68   35   36 1    
    69   35   37 1    
    70   35   97 1    
    71   36   98 1    
    72   36   99 1    
    73   36  100 1    
    74   37   38 am   BACKBONE|DICT|INTERRES
    75   37  101 1    
    76   38   39 2    
    77   38   40 1    
    78   40   41 1    
    79   40   42 1    
    80   40  102 1    
    81   41  103 1    
    82   41  104 1    
    83   41  105 1    
    84   42   43 am   BACKBONE|DICT|INTERRES
    85   42  106 1    
    86   43   44 2    
    87   43   45 1    
    88   45   46 1    
    89   45   49 1    
    90   45  107 1    
    91   46   47 1    
    92   46  108 1    
    93   46  109 1    
    94   47   48 1    
    95   48  110 1    
    96   48  111 1    
    97   49   50 am   BACKBONE|DICT|INTERRES
    98   49  112 1    
    99   50   51 2    
   100   50   52 1    
   101   52   53 1    
   102   52   54 1    
   103   52  113 1    
   104   53  114 1    
   105   53  115 1    
   106   53  116 1    
   107   54   55 am   BACKBONE|DICT|INTERRES
   108   54  117 1    
   109   55   56 2    
   110   55   57 1    
   111   57   58 1    
   112   57   59 1    
   113   57  118 1    
   114   58  119 1    
   115   58  120 1    
   116   58  121 1    
   117   59   60 am   BACKBONE|DICT|INTERRES
   118   59  122 1    
   119   60   61 2    
   120   60   62 1    
   121   62   63 1    
   122   62   64 1    
   123   62  123 1    
   124   63  124 1    
   125   63  125 1    
   126   63  126 1    
   127   64   65 am   BACKBONE|DICT|INTERRES
   128   64  127 1    
   129   65   66 2    
@<TRIPOS>SUBSTRUCTURE
     1 UNK         1 GROUP             0       ****    0 ROOT    
