@<TRIPOS>MOLECULE
3R134
127   129    1
SMALL
USER_CHARGES


@<TRIPOS>ATOM
      1 CA         37.3554  -42.8859  -50.2827 C.3       0 UNK        -0.1968 
      2 C          37.6007  -44.0126  -51.2756 C.2       0 UNK         0.4852 
      3 O          38.5494  -44.7807  -51.1067 O.2       0 UNK        -0.5359 
      4 N          36.7598  -44.1099  -52.3129 N.am      1 UNK        -0.4300 
      5 CA         36.7842  -45.1661  -53.3280 C.3       1 UNK         0.0863 
      6 C6         35.9608  -44.7943  -54.5909 C.3       11 UNK        -0.0953 
      7 S7         34.3470  -43.9997  -54.2624 S.3       11 UNK        -0.2369 
      8 C8         33.1881  -45.3665  -54.5580 C.3       11 UNK         0.0226 
      9 C9         31.7553  -44.8585  -54.5735 C.ar      11 UNK        -0.0699 
     10 C10        31.0435  -44.7101  -53.3791 C.ar      11 UNK        -0.0804 
     11 C11        29.7273  -44.2377  -53.3940 C.ar      11 UNK        -0.0871 
     12 C12        29.1217  -43.9279  -54.6143 C.ar      11 UNK        -0.1008 
     13 C13        29.8239  -44.0668  -55.8164 C.ar      11 UNK        -0.0735 
     14 C14        31.1424  -44.5304  -55.7863 C.ar      11 UNK        -0.0945 
     15 C15        29.1547  -43.7734  -57.1541 C.3       11 UNK         0.0169 
     16 S16        28.1612  -42.2434  -57.1432 S.3       11 UNK        -0.2669 
     17 C17        26.7363  -42.7979  -58.1328 C.3       11 UNK        -0.0850 
     18 CA         25.7576  -43.6987  -57.3067 C.3       10 UNK         0.0855 
     19 C          24.3623  -43.0477  -57.0590 C.2       10 UNK         0.5543 
     20 N          23.2741  -43.8077  -57.0379 N.am      10 UNK        -0.7343 
     21 O          24.2641  -41.8418  -56.8458 O.2       10 UNK        -0.5027 
     22 N          25.7230  -45.0881  -57.7961 N.am      10 UNK        -0.4495 
     23 C          25.3324  -45.4838  -59.0150 C.2       10 UNK         0.4903 
     24 O          24.9256  -44.7150  -59.8879 O.2       10 UNK        -0.4860 
     25 CA         25.4159  -46.9955  -59.2972 C.3       9 UNK         0.0227 
     26 CB         25.2051  -47.3467  -60.7852 C.3       9 UNK        -0.1964 
     27 N          26.6481  -47.6093  -58.7895 N.am      9 UNK        -0.4231 
     28 C          27.9174  -47.3317  -59.1299 C.2       9 UNK         0.5014 
     29 O          28.2371  -46.4607  -59.9399 O.2       9 UNK        -0.5270 
     30 CA         29.0316  -48.1660  -58.4603 C.3       8 UNK         0.0284 
     31 CB         29.8875  -47.2959  -57.5272 C.3       8 UNK        -0.1977 
     32 N          28.5331  -49.3115  -57.6970 N.am      8 UNK        -0.4342 
     33 C          28.0292  -50.4351  -58.2240 C.2       8 UNK         0.5039 
     34 O          28.0104  -50.6837  -59.4296 O.2       8 UNK        -0.5547 
     35 CA         27.3885  -51.4191  -57.2333 C.3       7 UNK         0.0281 
     36 CB         28.4546  -52.3311  -56.6053 C.3       7 UNK        -0.1963 
     37 N          26.6384  -50.7222  -56.1814 N.am      7 UNK        -0.4444 
     38 C          25.4729  -50.0875  -56.3779 C.2       7 UNK         0.5104 
     39 O          24.8903  -50.0489  -57.4608 O.2       7 UNK        -0.5100 
     40 CA         24.8680  -49.3414  -55.1769 C.3       6 UNK         0.0396 
     41 CB         24.0273  -50.2972  -54.3163 C.3       6 UNK        -0.1801 
     42 N          25.8829  -48.6955  -54.3428 N.am      6 UNK        -0.4747 
     43 C          26.5754  -47.6005  -54.6912 C.2       6 UNK         0.5012 
     44 O          26.4009  -46.9824  -55.7424 O.2       6 UNK        -0.5003 
     45 CA         27.6741  -47.1438  -53.7110 C.3       5 UNK         0.0782 
     46 C46        27.1093  -46.1251  -52.6886 C.3       11 UNK        -0.0868 
     47 S47        28.3372  -45.6238  -51.4305 S.3       11 UNK        -0.2515 
     48 C48        28.9598  -44.0486  -52.0938 C.3       11 UNK         0.0199 
     49 N          28.3594  -48.2648  -53.0556 N.am      5 UNK        -0.4607 
     50 C          29.0785  -49.1945  -53.6907 C.2       4 UNK         0.5031 
     51 O          29.1257  -49.3086  -54.9174 O.2       4 UNK        -0.5119 
     52 CA         29.8524  -50.1835  -52.8105 C.3       4 UNK         0.0263 
     53 CB         29.1012  -51.5202  -52.7027 C.3       4 UNK        -0.1967 
     54 N          31.1818  -50.4084  -53.3760 N.am      4 UNK        -0.4237 
     55 C          32.1897  -49.5333  -53.2766 C.2       3 UNK         0.4908 
     56 O          32.1513  -48.5061  -52.5941 O.2       3 UNK        -0.5102 
     57 CA         33.4430  -49.8474  -54.0964 C.3       3 UNK         0.0241 
     58 CB         33.3045  -49.3168  -55.5354 C.3       3 UNK        -0.1971 
     59 N          34.5944  -49.2345  -53.4402 N.am      3 UNK        -0.4139 
     60 C          35.8474  -49.6951  -53.4939 C.2       2 UNK         0.5016 
     61 O          36.1937  -50.6497  -54.1933 O.2       2 UNK        -0.5319 
     62 CA         36.8850  -48.9548  -52.6317 C.3       2 UNK         0.0286 
     63 CB         38.2480  -49.6727  -52.5982 C.3       2 UNK        -0.1963 
     64 N          37.0875  -47.5864  -53.1098 N.am      2 UNK        -0.4790 
     65 C          36.3621  -46.5258  -52.7341 C.2       1 UNK         0.5024 
     66 O          35.3999  -46.5970  -51.9659 O.2       1 UNK        -0.4888 
     67 H67        37.1720  -43.2949  -49.2895 H         1 UNK         0.0892 
     68 H68        38.2285  -42.2362  -50.2286 H         1 UNK         0.0892 
     69 H69        36.4962  -42.2762  -50.5621 H         1 UNK         0.0892 
     70 H70        35.9793  -43.4724  -52.3880 H         1 UNK         0.3107 
     71 H71        37.8242  -45.2660  -53.6474 H         1 UNK         0.0773 
     72 H72        36.5375  -44.0801  -55.1806 H         1 UNK         0.0680 
     73 H73        35.8278  -45.6576  -55.2459 H         1 UNK         0.0680 
     74 H74        33.3103  -46.1272  -53.7856 H         1 UNK         0.0650 
     75 H75        33.4252  -45.8436  -55.5098 H         1 UNK         0.0650 
     76 H76        31.5159  -44.9597  -52.4386 H         1 UNK         0.1397 
     77 H77        28.0990  -43.5779  -54.6282 H         1 UNK         0.1363 
     78 H78        31.6927  -44.6468  -56.7100 H         1 UNK         0.1355 
     79 H79        29.8943  -43.6976  -57.9526 H         1 UNK         0.0707 
     80 H80        28.5231  -44.6266  -57.4019 H         1 UNK         0.0707 
     81 H81        27.1209  -43.3157  -59.0129 H         1 UNK         0.1034 
     82 H82        26.2398  -41.9123  -58.5335 H         1 UNK         0.1034 
     83 H83        26.1551  -43.8031  -56.2967 H         1 UNK         0.0482 
     84 H84        23.3436  -44.7996  -57.1971 H         1 UNK         0.3460 
     85 H85        22.3765  -43.3831  -56.8651 H         1 UNK         0.3460 
     86 H86        26.0085  -45.7969  -57.1229 H         1 UNK         0.2989 
     87 H87        24.6001  -47.4519  -58.7349 H         1 UNK         0.0559 
     88 H88        25.9619  -46.8862  -61.4210 H         1 UNK         0.0848 
     89 H89        24.2319  -47.0005  -61.1354 H         1 UNK         0.0848 
     90 H90        25.2416  -48.4241  -60.9464 H         1 UNK         0.0848 
     91 H91        26.5096  -48.3290  -58.0937 H         1 UNK         0.3144 
     92 H92        29.6744  -48.5431  -59.2584 H         1 UNK         0.0727 
     93 H93        30.7155  -47.8631  -57.1014 H         1 UNK         0.0790 
     94 H94        29.2988  -46.8982  -56.7000 H         1 UNK         0.0790 
     95 H95        30.3177  -46.4511  -58.0659 H         1 UNK         0.0790 
     96 H96        28.5870  -49.2383  -56.6816 H         1 UNK         0.3215 
     97 H97        26.6892  -52.0471  -57.7902 H         1 UNK         0.0863 
     98 H98        29.2160  -51.7607  -56.0731 H         1 UNK         0.0808 
     99 H99        28.9665  -52.9116  -57.3740 H         1 UNK         0.0808 
    100 H100       28.0112  -53.0409  -55.9068 H         1 UNK         0.0808 
    101 H101       27.0771  -50.6552  -55.2749 H         1 UNK         0.3118 
    102 H102       24.2046  -48.5662  -55.5671 H         1 UNK         0.0546 
    103 H103       23.5298  -49.7664  -53.5045 H         1 UNK         0.0828 
    104 H104       24.6336  -51.0907  -53.8776 H         1 UNK         0.0828 
    105 H105       23.2486  -50.7750  -54.9127 H         1 UNK         0.0828 
    106 H106       26.0944  -49.1297  -53.4557 H         1 UNK         0.3005 
    107 H107       28.4280  -46.6350  -54.3148 H         1 UNK         0.1257 
    108 H108       26.2574  -46.5530  -52.1565 H         1 UNK         0.0775 
    109 H109       26.7295  -45.2378  -53.1986 H         1 UNK         0.0775 
    110 H110       28.1273  -43.3563  -52.2294 H         1 UNK         0.0840 
    111 H111       29.6151  -43.5897  -51.3519 H         1 UNK         0.0840 
    112 H112       28.3807  -48.2302  -52.0464 H         1 UNK         0.2987 
    113 H113       29.9611  -49.7650  -51.8072 H         1 UNK         0.0785 
    114 H114       29.6324  -52.2200  -52.0573 H         1 UNK         0.0798 
    115 H115       28.1083  -51.3775  -52.2740 H         1 UNK         0.0798 
    116 H116       28.9715  -51.9963  -53.6742 H         1 UNK         0.0798 
    117 H117       31.2808  -51.2012  -53.9932 H         1 UNK         0.3079 
    118 H118       33.5759  -50.9315  -54.1189 H         1 UNK         0.0794 
    119 H119       32.4509  -49.7708  -56.0406 H         1 UNK         0.0786 
    120 H120       34.1902  -49.5417  -56.1297 H         1 UNK         0.0786 
    121 H121       33.1543  -48.2376  -55.5526 H         1 UNK         0.0786 
    122 H122       34.3737  -48.4518  -52.8318 H         1 UNK         0.3032 
    123 H123       36.5006  -48.9327  -51.6088 H         1 UNK         0.1094 
    124 H124       38.7028  -49.7291  -53.5881 H         1 UNK         0.0794 
    125 H125       38.9481  -49.1624  -51.9363 H         1 UNK         0.0794 
    126 H126       38.1423  -50.6939  -52.2290 H         1 UNK         0.0794 
    127 H127       37.8376  -47.4541  -53.7739 H         1 UNK         0.3016 
@<TRIPOS>BOND
     1    1    2 1    
     2    1   67 1    
     3    1   68 1    
     4    1   69 1    
     5    2    3 2    
     6    2    4 am   BACKBONE|DICT|INTERRES
     7    4    5 1    
     8    4   70 1    
     9    5    6 1    
    10    5   65 1    
    11    5   71 1    
    12    6    7 1    
    13    6   72 1    
    14    6   73 1    
    15    7    8 1    
    16    8    9 1    
    17    8   74 1    
    18    8   75 1    
    19    9   10 ar   
    20    9   14 ar   
    21   10   11 ar   
    22   10   76 1    
    23   11   12 ar   
    24   11   48 1    
    25   12   13 ar   
    26   12   77 1    
    27   13   14 ar   
    28   13   15 1    
    29   14   78 1    
    30   15   16 1    
    31   15   79 1    
    32   15   80 1    
    33   16   17 1    
    34   17   18 1    
    35   17   81 1    
    36   17   82 1    
    37   18   19 1    
    38   18   22 1    
    39   18   83 1    
    40   19   20 am   BACKBONE|DICT|INTERRES
    41   19   21 2    
    42   20   84 1    
    43   20   85 1    
    44   22   23 am   BACKBONE|DICT|INTERRES
    45   22   86 1    
    46   23   24 2    
    47   23   25 1    
    48   25   26 1    
    49   25   27 1    
    50   25   87 1    
    51   26   88 1    
    52   26   89 1    
    53   26   90 1    
    54   27   28 am   BACKBONE|DICT|INTERRES
    55   27   91 1    
    56   28   29 2    
    57   28   30 1    
    58   30   31 1    
    59   30   32 1    
    60   30   92 1    
    61   31   93 1    
    62   31   94 1    
    63   31   95 1    
    64   32   33 am   BACKBONE|DICT|INTERRES
    65   32   96 1    
    66   33   34 2    
    67   33   35 1    
    68   35   36 1    
    69   35   37 1    
    70   35   97 1    
    71   36   98 1    
    72   36   99 1    
    73   36  100 1    
    74   37   38 am   BACKBONE|DICT|INTERRES
    75   37  101 1    
    76   38   39 2    
    77   38   40 1    
    78   40   41 1    
    79   40   42 1    
    80   40  102 1    
    81   41  103 1    
    82   41  104 1    
    83   41  105 1    
    84   42   43 am   BACKBONE|DICT|INTERRES
    85   42  106 1    
    86   43   44 2    
    87   43   45 1    
    88   45   46 1    
    89   45   49 1    
    90   45  107 1    
    91   46   47 1    
    92   46  108 1    
    93   46  109 1    
    94   47   48 1    
    95   48  110 1    
    96   48  111 1    
    97   49   50 am   BACKBONE|DICT|INTERRES
    98   49  112 1    
    99   50   51 2    
   100   50   52 1    
   101   52   53 1    
   102   52   54 1    
   103   52  113 1    
   104   53  114 1    
   105   53  115 1    
   106   53  116 1    
   107   54   55 am   BACKBONE|DICT|INTERRES
   108   54  117 1    
   109   55   56 2    
   110   55   57 1    
   111   57   58 1    
   112   57   59 1    
   113   57  118 1    
   114   58  119 1    
   115   58  120 1    
   116   58  121 1    
   117   59   60 am   BACKBONE|DICT|INTERRES
   118   59  122 1    
   119   60   61 2    
   120   60   62 1    
   121   62   63 1    
   122   62   64 1    
   123   62  123 1    
   124   63  124 1    
   125   63  125 1    
   126   63  126 1    
   127   64   65 am   BACKBONE|DICT|INTERRES
   128   64  127 1    
   129   65   66 2    
@<TRIPOS>SUBSTRUCTURE
     1 UNK         1 GROUP             0       ****    0 ROOT    
