@<TRIPOS>MOLECULE
3R134
127   129    1
SMALL
USER_CHARGES


@<TRIPOS>ATOM
      1 CA         33.6076  -47.6439  -58.5243 C.3       0 UNK        -0.1968 
      2 C          33.4058  -47.3853  -57.0395 C.2       0 UNK         0.4852 
      3 O          32.8117  -48.2135  -56.3507 O.2       0 UNK        -0.5359 
      4 N          33.9126  -46.2500  -56.5404 N.am      1 UNK        -0.4300 
      5 CA         33.7870  -45.7831  -55.1503 C.3       1 UNK         0.0863 
      6 C6         34.4408  -44.3921  -54.9631 C.3       11 UNK        -0.0953 
      7 S7         33.7421  -43.1280  -56.0777 S.3       11 UNK        -0.2369 
      8 C8         33.0667  -41.9198  -54.8985 C.3       11 UNK         0.0226 
      9 C9         31.8010  -42.4230  -54.2206 C.ar      11 UNK        -0.0699 
     10 C10        31.8449  -42.9273  -52.9181 C.ar      11 UNK        -0.0804 
     11 C11        30.6732  -43.3369  -52.2753 C.ar      11 UNK        -0.0871 
     12 C12        29.4504  -43.2376  -52.9474 C.ar      11 UNK        -0.1008 
     13 C13        29.3956  -42.7677  -54.2662 C.ar      11 UNK        -0.0735 
     14 C14        30.5764  -42.3524  -54.8890 C.ar      11 UNK        -0.0945 
     15 C15        28.0777  -42.6703  -55.0312 C.3       11 UNK         0.0169 
     16 S16        26.9670  -44.0867  -54.7429 S.3       11 UNK        -0.2669 
     17 C17        25.9399  -44.0793  -56.2515 C.3       11 UNK        -0.0850 
     18 CA         26.1472  -45.3687  -57.0964 C.3       10 UNK         0.0855 
     19 C          25.1518  -45.4846  -58.2904 C.2       10 UNK         0.5543 
     20 N          25.5391  -46.0518  -59.4280 N.am      10 UNK        -0.7343 
     21 O          23.9953  -45.0870  -58.1749 O.2       10 UNK        -0.5027 
     22 N          27.5534  -45.6203  -57.4503 N.am      10 UNK        -0.4495 
     23 C          28.3350  -44.8605  -58.2293 C.2       10 UNK         0.4903 
     24 O          28.0004  -43.7703  -58.6933 O.2       10 UNK        -0.4860 
     25 CA         29.7223  -45.4302  -58.5827 C.3       9 UNK         0.0227 
     26 CB         30.7884  -44.8536  -57.6396 C.3       9 UNK        -0.1964 
     27 N          29.7738  -46.8978  -58.5551 N.am      9 UNK        -0.4231 
     28 C          29.0638  -47.6986  -59.3649 C.2       9 UNK         0.5014 
     29 O          28.3675  -47.2871  -60.2947 O.2       9 UNK        -0.5270 
     30 CA         29.0540  -49.2060  -59.0467 C.3       8 UNK         0.0284 
     31 CB         30.3050  -49.6991  -58.2818 C.3       8 UNK        -0.1977 
     32 N          27.8229  -49.5829  -58.3369 N.am      8 UNK        -0.4342 
     33 C          27.4170  -49.1026  -57.1537 C.2       8 UNK         0.5039 
     34 O          28.0531  -48.2663  -56.5021 O.2       8 UNK        -0.5547 
     35 CA         26.0891  -49.6268  -56.5865 C.3       7 UNK         0.0281 
     36 CB         26.1010  -51.1606  -56.4168 C.3       7 UNK        -0.1963 
     37 N          25.9354  -48.9646  -55.2975 N.am      7 UNK        -0.4444 
     38 C          24.8901  -48.9501  -54.4670 C.2       7 UNK         0.5104 
     39 O          23.8196  -49.5106  -54.7034 O.2       7 UNK        -0.5100 
     40 CA         25.0862  -48.1857  -53.1428 C.3       6 UNK         0.0396 
     41 CB         24.4626  -48.9259  -51.9448 C.3       6 UNK        -0.1801 
     42 N          26.5081  -47.9309  -52.8788 N.am      6 UNK        -0.4747 
     43 C          27.0169  -46.8259  -52.3164 C.2       6 UNK         0.5012 
     44 O          26.3133  -45.9124  -51.8835 O.2       6 UNK        -0.5003 
     45 CA         28.5584  -46.7278  -52.2035 C.3       5 UNK         0.0782 
     46 C46        28.9838  -46.0888  -50.8547 C.3       11 UNK        -0.0868 
     47 S47        30.7613  -45.6822  -50.7842 S.3       11 UNK        -0.2515 
     48 C48        30.7345  -43.8601  -50.8466 C.3       11 UNK         0.0199 
     49 N          29.1723  -48.0485  -52.4027 N.am      5 UNK        -0.4607 
     50 C          30.0201  -48.3801  -53.3841 C.2       4 UNK         0.5031 
     51 O          30.4618  -47.5959  -54.2239 O.2       4 UNK        -0.5119 
     52 CA         30.3823  -49.8687  -53.4520 C.3       4 UNK         0.0263 
     53 CB         29.2531  -50.6713  -54.1311 C.3       4 UNK        -0.1967 
     54 N          31.6405  -50.0743  -54.1685 N.am      4 UNK        -0.4237 
     55 C          32.3608  -51.2036  -54.1013 C.2       3 UNK         0.4908 
     56 O          32.0480  -52.1752  -53.4110 O.2       3 UNK        -0.5102 
     57 CA         33.6518  -51.2735  -54.9256 C.3       3 UNK         0.0241 
     58 CB         33.3491  -51.5214  -56.4136 C.3       3 UNK        -0.1971 
     59 N          34.4501  -50.0601  -54.7639 N.am      3 UNK        -0.4139 
     60 C          35.3294  -49.8666  -53.7692 C.2       2 UNK         0.5016 
     61 O          35.5740  -50.7068  -52.9021 O.2       2 UNK        -0.5319 
     62 CA         36.0898  -48.5283  -53.7332 C.3       2 UNK         0.0286 
     63 CB         37.5303  -48.7161  -54.2376 C.3       2 UNK        -0.1963 
     64 N          35.4458  -47.4788  -54.5233 N.am      2 UNK        -0.4790 
     65 C          34.3772  -46.7740  -54.1247 C.2       1 UNK         0.5024 
     66 O          33.8639  -46.8869  -53.0119 O.2       1 UNK        -0.4888 
     67 H67        34.3873  -47.0085  -58.9436 H         1 UNK         0.0892 
     68 H68        33.8937  -48.6823  -58.6900 H         1 UNK         0.0892 
     69 H69        32.6835  -47.4524  -59.0682 H         1 UNK         0.0892 
     70 H70        34.3829  -45.6061  -57.1606 H         1 UNK         0.3107 
     71 H71        32.7195  -45.6972  -54.9324 H         1 UNK         0.0773 
     72 H72        35.5144  -44.4448  -55.1547 H         1 UNK         0.0680 
     73 H73        34.3395  -44.0595  -53.9291 H         1 UNK         0.0680 
     74 H74        32.8443  -40.9969  -55.4361 H         1 UNK         0.0650 
     75 H75        33.8283  -41.6624  -54.1608 H         1 UNK         0.0650 
     76 H76        32.7906  -42.9872  -52.3972 H         1 UNK         0.1397 
     77 H77        28.5406  -43.5375  -52.4466 H         1 UNK         0.1363 
     78 H78        30.5459  -41.9642  -55.8979 H         1 UNK         0.1355 
     79 H79        27.5648  -41.7506  -54.7478 H         1 UNK         0.0707 
     80 H80        28.2826  -42.5981  -56.1002 H         1 UNK         0.0707 
     81 H81        24.8992  -43.9981  -55.9329 H         1 UNK         0.1034 
     82 H82        26.1376  -43.1879  -56.8483 H         1 UNK         0.1034 
     83 H83        25.8771  -46.2061  -56.4525 H         1 UNK         0.0482 
     84 H84        26.4894  -46.3751  -59.5527 H         1 UNK         0.3460 
     85 H85        24.8803  -46.1285  -60.1865 H         1 UNK         0.3460 
     86 H86        27.9241  -46.5064  -57.1134 H         1 UNK         0.2989 
     87 H87        29.9564  -45.1070  -59.5991 H         1 UNK         0.0559 
     88 H88        30.6804  -45.2292  -56.6205 H         1 UNK         0.0848 
     89 H89        30.7233  -43.7660  -57.5937 H         1 UNK         0.0848 
     90 H90        31.7914  -45.0909  -57.9887 H         1 UNK         0.0848 
     91 H91        30.2342  -47.3241  -57.7616 H         1 UNK         0.3144 
     92 H92        29.0333  -49.7236  -60.0071 H         1 UNK         0.0727 
     93 H93        30.2860  -50.7824  -58.1635 H         1 UNK         0.0790 
     94 H94        30.3906  -49.2678  -57.2836 H         1 UNK         0.0790 
     95 H95        31.2177  -49.4556  -58.8256 H         1 UNK         0.0790 
     96 H96        27.2232  -50.2354  -58.8230 H         1 UNK         0.3215 
     97 H97        25.2755  -49.3210  -57.2470 H         1 UNK         0.0863 
     98 H98        25.1742  -51.5216  -55.9713 H         1 UNK         0.0808 
     99 H99        26.9237  -51.4910  -55.7825 H         1 UNK         0.0808 
    100 H100       26.2051  -51.6668  -57.3767 H         1 UNK         0.0808 
    101 H101       26.7486  -48.3944  -55.0865 H         1 UNK         0.3118 
    102 H102       24.5674  -47.2331  -53.2686 H         1 UNK         0.0546 
    103 H103       24.9249  -49.9015  -51.7913 H         1 UNK         0.0828 
    104 H104       23.3946  -49.0891  -52.0943 H         1 UNK         0.0828 
    105 H105       24.5731  -48.3532  -51.0239 H         1 UNK         0.0828 
    106 H106       27.1510  -48.6448  -53.1880 H         1 UNK         0.3005 
    107 H107       28.8650  -46.0573  -53.0102 H         1 UNK         0.1257 
    108 H108       28.7581  -46.7654  -50.0286 H         1 UNK         0.0775 
    109 H109       28.4147  -45.1805  -50.6521 H         1 UNK         0.0775 
    110 H110       29.9013  -43.4680  -50.2618 H         1 UNK         0.0840 
    111 H111       31.6359  -43.4896  -50.3559 H         1 UNK         0.0840 
    112 H112       28.8924  -48.7592  -51.7413 H         1 UNK         0.2987 
    113 H113       30.5095  -50.2240  -52.4269 H         1 UNK         0.0785 
    114 H114       29.4297  -51.7449  -54.0681 H         1 UNK         0.0798 
    115 H115       29.1695  -50.4133  -55.1863 H         1 UNK         0.0798 
    116 H116       28.2856  -50.4836  -53.6659 H         1 UNK         0.0798 
    117 H117       31.9450  -49.2972  -54.7518 H         1 UNK         0.3079 
    118 H118       34.2305  -52.1279  -54.5668 H         1 UNK         0.0794 
    119 H119       32.8163  -52.4638  -56.5470 H         1 UNK         0.0786 
    120 H120       34.2657  -51.5816  -57.0003 H         1 UNK         0.0786 
    121 H121       32.7267  -50.7381  -56.8444 H         1 UNK         0.0786 
    122 H122       34.2289  -49.2910  -55.3867 H         1 UNK         0.3032 
    123 H123       36.1316  -48.2074  -52.6895 H         1 UNK         0.1094 
    124 H124       38.1028  -47.7917  -54.1579 H         1 UNK         0.0794 
    125 H125       38.0546  -49.4706  -53.6491 H         1 UNK         0.0794 
    126 H126       37.5559  -49.0401  -55.2788 H         1 UNK         0.0794 
    127 H127       35.8087  -47.3149  -55.4516 H         1 UNK         0.3016 
@<TRIPOS>BOND
     1    1    2 1    
     2    1   67 1    
     3    1   68 1    
     4    1   69 1    
     5    2    3 2    
     6    2    4 am   BACKBONE|DICT|INTERRES
     7    4    5 1    
     8    4   70 1    
     9    5    6 1    
    10    5   65 1    
    11    5   71 1    
    12    6    7 1    
    13    6   72 1    
    14    6   73 1    
    15    7    8 1    
    16    8    9 1    
    17    8   74 1    
    18    8   75 1    
    19    9   10 ar   
    20    9   14 ar   
    21   10   11 ar   
    22   10   76 1    
    23   11   12 ar   
    24   11   48 1    
    25   12   13 ar   
    26   12   77 1    
    27   13   14 ar   
    28   13   15 1    
    29   14   78 1    
    30   15   16 1    
    31   15   79 1    
    32   15   80 1    
    33   16   17 1    
    34   17   18 1    
    35   17   81 1    
    36   17   82 1    
    37   18   19 1    
    38   18   22 1    
    39   18   83 1    
    40   19   20 am   BACKBONE|DICT|INTERRES
    41   19   21 2    
    42   20   84 1    
    43   20   85 1    
    44   22   23 am   BACKBONE|DICT|INTERRES
    45   22   86 1    
    46   23   24 2    
    47   23   25 1    
    48   25   26 1    
    49   25   27 1    
    50   25   87 1    
    51   26   88 1    
    52   26   89 1    
    53   26   90 1    
    54   27   28 am   BACKBONE|DICT|INTERRES
    55   27   91 1    
    56   28   29 2    
    57   28   30 1    
    58   30   31 1    
    59   30   32 1    
    60   30   92 1    
    61   31   93 1    
    62   31   94 1    
    63   31   95 1    
    64   32   33 am   BACKBONE|DICT|INTERRES
    65   32   96 1    
    66   33   34 2    
    67   33   35 1    
    68   35   36 1    
    69   35   37 1    
    70   35   97 1    
    71   36   98 1    
    72   36   99 1    
    73   36  100 1    
    74   37   38 am   BACKBONE|DICT|INTERRES
    75   37  101 1    
    76   38   39 2    
    77   38   40 1    
    78   40   41 1    
    79   40   42 1    
    80   40  102 1    
    81   41  103 1    
    82   41  104 1    
    83   41  105 1    
    84   42   43 am   BACKBONE|DICT|INTERRES
    85   42  106 1    
    86   43   44 2    
    87   43   45 1    
    88   45   46 1    
    89   45   49 1    
    90   45  107 1    
    91   46   47 1    
    92   46  108 1    
    93   46  109 1    
    94   47   48 1    
    95   48  110 1    
    96   48  111 1    
    97   49   50 am   BACKBONE|DICT|INTERRES
    98   49  112 1    
    99   50   51 2    
   100   50   52 1    
   101   52   53 1    
   102   52   54 1    
   103   52  113 1    
   104   53  114 1    
   105   53  115 1    
   106   53  116 1    
   107   54   55 am   BACKBONE|DICT|INTERRES
   108   54  117 1    
   109   55   56 2    
   110   55   57 1    
   111   57   58 1    
   112   57   59 1    
   113   57  118 1    
   114   58  119 1    
   115   58  120 1    
   116   58  121 1    
   117   59   60 am   BACKBONE|DICT|INTERRES
   118   59  122 1    
   119   60   61 2    
   120   60   62 1    
   121   62   63 1    
   122   62   64 1    
   123   62  123 1    
   124   63  124 1    
   125   63  125 1    
   126   63  126 1    
   127   64   65 am   BACKBONE|DICT|INTERRES
   128   64  127 1    
   129   65   66 2    
@<TRIPOS>SUBSTRUCTURE
     1 UNK         1 GROUP             0       ****    0 ROOT    
