@<TRIPOS>MOLECULE
3R134
127   129    1
SMALL
USER_CHARGES


@<TRIPOS>ATOM
      1 CA         36.2899  -43.7952  -47.8152 C.3       0 UNK        -0.1968 
      2 C          36.2383  -43.7949  -49.3362 C.2       0 UNK         0.4852 
      3 O          36.8375  -42.9232  -49.9682 O.2       0 UNK        -0.5359 
      4 N          35.5337  -44.7657  -49.9248 N.am      1 UNK        -0.4300 
      5 CA         35.3674  -44.9470  -51.3655 C.3       1 UNK         0.0863 
      6 C6         34.3628  -43.9443  -52.0001 C.3       11 UNK        -0.0953 
      7 S7         32.7186  -43.8702  -51.2011 S.3       11 UNK        -0.2369 
      8 C8         31.7302  -45.0502  -52.1739 C.3       11 UNK         0.0226 
      9 C9         31.3029  -44.4946  -53.5264 C.ar      11 UNK        -0.0699 
     10 C10        32.1101  -44.6691  -54.6528 C.ar      11 UNK        -0.0804 
     11 C11        31.7293  -44.1439  -55.8906 C.ar      11 UNK        -0.0871 
     12 C12        30.5105  -43.4701  -56.0047 C.ar      11 UNK        -0.1008 
     13 C13        29.6706  -43.3151  -54.8926 C.ar      11 UNK        -0.0735 
     14 C14        30.0844  -43.8233  -53.6567 C.ar      11 UNK        -0.0945 
     15 C15        28.3321  -42.5772  -54.9504 C.3       11 UNK         0.0169 
     16 S16        27.7084  -42.1517  -56.6140 S.3       11 UNK        -0.2669 
     17 C17        27.1364  -43.7640  -57.2692 C.3       11 UNK        -0.0850 
     18 CA         25.9671  -44.4606  -56.5059 C.3       10 UNK         0.0855 
     19 C          24.8014  -43.5331  -56.0507 C.2       10 UNK         0.5543 
     20 N          24.2181  -43.8054  -54.8905 N.am      10 UNK        -0.7343 
     21 O          24.4144  -42.5859  -56.7312 O.2       10 UNK        -0.5027 
     22 N          25.4511  -45.6433  -57.2149 N.am      10 UNK        -0.4495 
     23 C          24.7601  -45.6461  -58.3655 C.2       10 UNK         0.4903 
     24 O          24.5823  -44.6490  -59.0670 O.2       10 UNK        -0.4860 
     25 CA         24.1376  -46.9912  -58.7897 C.3       9 UNK         0.0227 
     26 CB         23.4058  -46.9167  -60.1475 C.3       9 UNK        -0.1964 
     27 N          25.0864  -48.1073  -58.7836 N.am      9 UNK        -0.4231 
     28 C          26.2271  -48.2335  -59.4755 C.2       9 UNK         0.5014 
     29 O          26.6716  -47.3679  -60.2319 O.2       9 UNK        -0.5270 
     30 CA         26.9764  -49.5759  -59.3107 C.3       8 UNK         0.0284 
     31 CB         28.3214  -49.5971  -60.0606 C.3       8 UNK        -0.1977 
     32 N          27.2060  -49.9381  -57.9075 N.am      8 UNK        -0.4342 
     33 C          26.2751  -50.3645  -57.0425 C.2       8 UNK         0.5039 
     34 O          25.0985  -50.5580  -57.3528 O.2       8 UNK        -0.5547 
     35 CA         26.7029  -50.5443  -55.5774 C.3       7 UNK         0.0281 
     36 CB         27.3060  -51.9399  -55.3555 C.3       7 UNK        -0.1963 
     37 N          27.6439  -49.5163  -55.1248 N.am      7 UNK        -0.4444 
     38 C          27.3755  -48.2032  -55.0548 C.2       7 UNK         0.5104 
     39 O          26.2820  -47.7064  -55.3308 O.2       7 UNK        -0.5100 
     40 CA         28.5381  -47.2878  -54.6316 C.3       6 UNK         0.0396 
     41 CB         28.7450  -47.3533  -53.1117 C.3       6 UNK        -0.1801 
     42 N          29.7868  -47.6162  -55.3268 N.am      6 UNK        -0.4747 
     43 C          29.9565  -47.5032  -56.6543 C.2       6 UNK         0.5012 
     44 O          29.1032  -47.0413  -57.4117 O.2       6 UNK        -0.5003 
     45 CA         31.2593  -48.0784  -57.2512 C.3       5 UNK         0.0782 
     46 C46        32.4387  -47.0781  -57.2614 C.3       11 UNK        -0.0868 
     47 S47        32.1320  -45.5767  -58.2507 S.3       11 UNK        -0.2515 
     48 C48        32.6518  -44.2675  -57.0966 C.3       11 UNK         0.0199 
     49 N          31.6399  -49.3191  -56.5738 N.am      5 UNK        -0.4607 
     50 C          31.0031  -50.4882  -56.7179 C.2       4 UNK         0.5031 
     51 O          30.0442  -50.6534  -57.4695 O.2       4 UNK        -0.5119 
     52 CA         31.4963  -51.6608  -55.8523 C.3       4 UNK         0.0263 
     53 CB         32.6440  -52.4025  -56.5552 C.3       4 UNK        -0.1967 
     54 N          31.9290  -51.2392  -54.5173 N.am      4 UNK        -0.4237 
     55 C          31.1149  -50.7126  -53.5910 C.2       3 UNK         0.4908 
     56 O          29.9003  -50.5928  -53.7428 O.2       3 UNK        -0.5102 
     57 CA         31.7644  -50.1883  -52.2985 C.3       3 UNK         0.0241 
     58 CB         31.7808  -51.2848  -51.2221 C.3       3 UNK        -0.1971 
     59 N          33.1215  -49.6612  -52.4855 N.am      3 UNK        -0.4139 
     60 C          33.4327  -48.6179  -53.2667 C.2       2 UNK         0.5016 
     61 O          32.6093  -48.0040  -53.9487 O.2       2 UNK        -0.5319 
     62 CA         34.9178  -48.2268  -53.3436 C.3       2 UNK         0.0286 
     63 CB         35.4408  -48.3897  -54.7810 C.3       2 UNK        -0.1963 
     64 N          35.1564  -46.8513  -52.8980 N.am      2 UNK        -0.4790 
     65 C          35.0176  -46.4224  -51.6357 C.2       1 UNK         0.5024 
     66 O          34.6527  -47.1465  -50.7043 O.2       1 UNK        -0.4888 
     67 H67        35.7166  -44.6180  -47.3883 H         1 UNK         0.0892 
     68 H68        35.8833  -42.8620  -47.4264 H         1 UNK         0.0892 
     69 H69        37.3207  -43.8870  -47.4742 H         1 UNK         0.0892 
     70 H70        35.0891  -45.4928  -49.3771 H         1 UNK         0.3107 
     71 H71        36.3433  -44.7827  -51.8281 H         1 UNK         0.0773 
     72 H72        34.7842  -42.9405  -51.9314 H         1 UNK         0.0680 
     73 H73        34.2596  -44.1223  -53.0680 H         1 UNK         0.0680 
     74 H74        32.2759  -45.9831  -52.2998 H         1 UNK         0.0650 
     75 H75        30.8482  -45.2989  -51.5834 H         1 UNK         0.0650 
     76 H76        33.0402  -45.2111  -54.5633 H         1 UNK         0.1397 
     77 H77        30.2316  -43.0664  -56.9672 H         1 UNK         0.1363 
     78 H78        29.4545  -43.6937  -52.7872 H         1 UNK         0.1355 
     79 H79        28.4426  -41.6454  -54.3942 H         1 UNK         0.0707 
     80 H80        27.5728  -43.1542  -54.4217 H         1 UNK         0.0707 
     81 H81        27.9892  -44.4432  -57.3203 H         1 UNK         0.1034 
     82 H82        26.8468  -43.5851  -58.3050 H         1 UNK         0.1034 
     83 H83        26.4078  -44.8611  -55.5926 H         1 UNK         0.0482 
     84 H84        24.5111  -44.5922  -54.3326 H         1 UNK         0.3460 
     85 H85        23.4584  -43.2227  -54.5749 H         1 UNK         0.3460 
     86 H86        25.5634  -46.5176  -56.7089 H         1 UNK         0.2989 
     87 H87        23.3904  -47.2287  -58.0311 H         1 UNK         0.0559 
     88 H88        22.9319  -47.8661  -60.3964 H         1 UNK         0.0848 
     89 H89        24.0858  -46.6581  -60.9600 H         1 UNK         0.0848 
     90 H90        22.6204  -46.1600  -60.1280 H         1 UNK         0.0848 
     91 H91        24.8408  -48.8973  -58.1891 H         1 UNK         0.3144 
     92 H92        26.3422  -50.3447  -59.7568 H         1 UNK         0.0727 
     93 H93        28.8095  -50.5681  -59.9749 H         1 UNK         0.0790 
     94 H94        29.0060  -48.8415  -59.6740 H         1 UNK         0.0790 
     95 H95        28.1822  -49.3996  -61.1242 H         1 UNK         0.0790 
     96 H96        28.1613  -49.8506  -57.5756 H         1 UNK         0.3215 
     97 H97        25.8057  -50.4593  -54.9607 H         1 UNK         0.0863 
     98 H98        27.5549  -52.1030  -54.3068 H         1 UNK         0.0808 
     99 H99        28.2134  -52.0853  -55.9416 H         1 UNK         0.0808 
    100 H100       26.6012  -52.7198  -55.6467 H         1 UNK         0.0808 
    101 H101       28.5536  -49.8408  -54.8029 H         1 UNK         0.3118 
    102 H102       28.2800  -46.2602  -54.8946 H         1 UNK         0.0546 
    103 H103       27.8745  -46.9597  -52.5858 H         1 UNK         0.0828 
    104 H104       29.6048  -46.7644  -52.8056 H         1 UNK         0.0828 
    105 H105       28.9017  -48.3726  -52.7601 H         1 UNK         0.0828 
    106 H106       30.5559  -47.9701  -54.7694 H         1 UNK         0.3005 
    107 H107       31.0395  -48.3297  -58.2915 H         1 UNK         0.1257 
    108 H108       33.3225  -47.5614  -57.6806 H         1 UNK         0.0775 
    109 H109       32.7106  -46.8074  -56.2435 H         1 UNK         0.0775 
    110 H110       33.6793  -44.4537  -56.7795 H         1 UNK         0.0840 
    111 H111       32.6716  -43.3175  -57.6327 H         1 UNK         0.0840 
    112 H112       32.3649  -49.2389  -55.8746 H         1 UNK         0.2987 
    113 H113       30.6635  -52.3567  -55.7311 H         1 UNK         0.0785 
    114 H114       33.5193  -51.7650  -56.6871 H         1 UNK         0.0798 
    115 H115       32.3376  -52.7440  -57.5451 H         1 UNK         0.0798 
    116 H116       32.9511  -53.2838  -55.9918 H         1 UNK         0.0798 
    117 H117       32.9129  -51.3165  -54.3057 H         1 UNK         0.3079 
    118 H118       31.1435  -49.3657  -51.9373 H         1 UNK         0.0794 
    119 H119       32.4134  -52.1257  -51.5093 H         1 UNK         0.0786 
    120 H120       30.7771  -51.6760  -51.0489 H         1 UNK         0.0786 
    121 H121       32.1443  -50.8999  -50.2689 H         1 UNK         0.0786 
    122 H122       33.8543  -50.1053  -51.9505 H         1 UNK         0.3032 
    123 H123       35.4930  -48.8937  -52.6972 H         1 UNK         0.1094 
    124 H124       36.5127  -48.1987  -54.8366 H         1 UNK         0.0794 
    125 H125       35.2761  -49.4043  -55.1466 H         1 UNK         0.0794 
    126 H126       34.9441  -47.7091  -55.4732 H         1 UNK         0.0794 
    127 H127       35.4503  -46.1958  -53.6074 H         1 UNK         0.3016 
@<TRIPOS>BOND
     1    1    2 1    
     2    1   67 1    
     3    1   68 1    
     4    1   69 1    
     5    2    3 2    
     6    2    4 am   BACKBONE|DICT|INTERRES
     7    4    5 1    
     8    4   70 1    
     9    5    6 1    
    10    5   65 1    
    11    5   71 1    
    12    6    7 1    
    13    6   72 1    
    14    6   73 1    
    15    7    8 1    
    16    8    9 1    
    17    8   74 1    
    18    8   75 1    
    19    9   10 ar   
    20    9   14 ar   
    21   10   11 ar   
    22   10   76 1    
    23   11   12 ar   
    24   11   48 1    
    25   12   13 ar   
    26   12   77 1    
    27   13   14 ar   
    28   13   15 1    
    29   14   78 1    
    30   15   16 1    
    31   15   79 1    
    32   15   80 1    
    33   16   17 1    
    34   17   18 1    
    35   17   81 1    
    36   17   82 1    
    37   18   19 1    
    38   18   22 1    
    39   18   83 1    
    40   19   20 am   BACKBONE|DICT|INTERRES
    41   19   21 2    
    42   20   84 1    
    43   20   85 1    
    44   22   23 am   BACKBONE|DICT|INTERRES
    45   22   86 1    
    46   23   24 2    
    47   23   25 1    
    48   25   26 1    
    49   25   27 1    
    50   25   87 1    
    51   26   88 1    
    52   26   89 1    
    53   26   90 1    
    54   27   28 am   BACKBONE|DICT|INTERRES
    55   27   91 1    
    56   28   29 2    
    57   28   30 1    
    58   30   31 1    
    59   30   32 1    
    60   30   92 1    
    61   31   93 1    
    62   31   94 1    
    63   31   95 1    
    64   32   33 am   BACKBONE|DICT|INTERRES
    65   32   96 1    
    66   33   34 2    
    67   33   35 1    
    68   35   36 1    
    69   35   37 1    
    70   35   97 1    
    71   36   98 1    
    72   36   99 1    
    73   36  100 1    
    74   37   38 am   BACKBONE|DICT|INTERRES
    75   37  101 1    
    76   38   39 2    
    77   38   40 1    
    78   40   41 1    
    79   40   42 1    
    80   40  102 1    
    81   41  103 1    
    82   41  104 1    
    83   41  105 1    
    84   42   43 am   BACKBONE|DICT|INTERRES
    85   42  106 1    
    86   43   44 2    
    87   43   45 1    
    88   45   46 1    
    89   45   49 1    
    90   45  107 1    
    91   46   47 1    
    92   46  108 1    
    93   46  109 1    
    94   47   48 1    
    95   48  110 1    
    96   48  111 1    
    97   49   50 am   BACKBONE|DICT|INTERRES
    98   49  112 1    
    99   50   51 2    
   100   50   52 1    
   101   52   53 1    
   102   52   54 1    
   103   52  113 1    
   104   53  114 1    
   105   53  115 1    
   106   53  116 1    
   107   54   55 am   BACKBONE|DICT|INTERRES
   108   54  117 1    
   109   55   56 2    
   110   55   57 1    
   111   57   58 1    
   112   57   59 1    
   113   57  118 1    
   114   58  119 1    
   115   58  120 1    
   116   58  121 1    
   117   59   60 am   BACKBONE|DICT|INTERRES
   118   59  122 1    
   119   60   61 2    
   120   60   62 1    
   121   62   63 1    
   122   62   64 1    
   123   62  123 1    
   124   63  124 1    
   125   63  125 1    
   126   63  126 1    
   127   64   65 am   BACKBONE|DICT|INTERRES
   128   64  127 1    
   129   65   66 2    
@<TRIPOS>SUBSTRUCTURE
     1 UNK         1 GROUP             0       ****    0 ROOT    
