@<TRIPOS>MOLECULE
3R134
127   129    1
SMALL
USER_CHARGES


@<TRIPOS>ATOM
      1 CA         28.4319  -46.5428  -51.0943 C.3       0 UNK        -0.1968 
      2 C          28.9543  -45.3537  -50.2941 C.2       0 UNK         0.4852 
      3 O          28.2107  -44.8192  -49.4722 O.2       0 UNK        -0.5359 
      4 N          30.1994  -44.8891  -50.4807 N.am      1 UNK        -0.4300 
      5 CA         31.2710  -45.3768  -51.3671 C.3       1 UNK         0.0863 
      6 C6         30.9420  -45.3314  -52.8901 C.3       11 UNK        -0.0953 
      7 S7         30.2477  -43.7191  -53.3971 S.3       11 UNK        -0.2369 
      8 C8         31.7303  -42.8113  -53.9412 C.3       11 UNK         0.0226 
      9 C9         32.0249  -43.0760  -55.4084 C.ar      11 UNK        -0.0699 
     10 C10        33.0083  -43.9928  -55.7854 C.ar      11 UNK        -0.0804 
     11 C11        33.2246  -44.2818  -57.1369 C.ar      11 UNK        -0.0871 
     12 C12        32.4642  -43.6298  -58.1131 C.ar      11 UNK        -0.1008 
     13 C13        31.4885  -42.6966  -57.7470 C.ar      11 UNK        -0.0735 
     14 C14        31.2864  -42.4152  -56.3927 C.ar      11 UNK        -0.0945 
     15 C15        30.6532  -42.0024  -58.8149 C.3       11 UNK         0.0169 
     16 S16        28.9732  -42.7038  -58.9357 S.3       11 UNK        -0.2669 
     17 C17        28.0291  -41.5611  -57.8628 C.3       11 UNK        -0.0850 
     18 CA         26.7562  -42.1750  -57.2206 C.3       10 UNK         0.0855 
     19 C          25.5635  -42.2640  -58.2202 C.2       10 UNK         0.5543 
     20 N          24.8786  -43.3917  -58.3630 N.am      10 UNK        -0.7343 
     21 O          25.2355  -41.2741  -58.8704 O.2       10 UNK        -0.5027 
     22 N          27.0543  -43.4165  -56.4878 N.am      10 UNK        -0.4495 
     23 C          26.3872  -43.8519  -55.4115 C.2       10 UNK         0.4903 
     24 O          25.5035  -43.2034  -54.8483 O.2       10 UNK        -0.4860 
     25 CA         26.7600  -45.2592  -54.8967 C.3       9 UNK         0.0227 
     26 CB         25.7548  -45.8040  -53.8611 C.3       9 UNK        -0.1964 
     27 N          26.9599  -46.2446  -55.9675 N.am      9 UNK        -0.4231 
     28 C          26.1122  -46.5586  -56.9605 C.2       9 UNK         0.5014 
     29 O          25.0176  -46.0227  -57.1332 O.2       9 UNK        -0.5270 
     30 CA         26.5702  -47.6532  -57.9328 C.3       8 UNK         0.0284 
     31 CB         27.7050  -47.1440  -58.8399 C.3       8 UNK        -0.1977 
     32 N          27.0048  -48.8474  -57.2079 N.am      8 UNK        -0.4342 
     33 C          26.1977  -49.8535  -56.8412 C.2       8 UNK         0.5039 
     34 O          25.0007  -49.9087  -57.1260 O.2       8 UNK        -0.5547 
     35 CA         26.8227  -51.0045  -56.0294 C.3       7 UNK         0.0281 
     36 CB         27.1956  -52.1740  -56.9548 C.3       7 UNK        -0.1963 
     37 N          28.0075  -50.5903  -55.2758 N.am      7 UNK        -0.4444 
     38 C          27.9694  -49.8654  -54.1480 C.2       7 UNK         0.5104 
     39 O          26.9294  -49.5625  -53.5640 O.2       7 UNK        -0.5100 
     40 CA         29.3142  -49.3567  -53.5949 C.3       6 UNK         0.0396 
     41 CB         29.7965  -50.2415  -52.4370 C.3       6 UNK        -0.1801 
     42 N          30.3655  -49.2405  -54.6125 N.am      6 UNK        -0.4747 
     43 C          30.3037  -48.3918  -55.6512 C.2       6 UNK         0.5012 
     44 O          29.3654  -47.6143  -55.8212 O.2       6 UNK        -0.5003 
     45 CA         31.4234  -48.4229  -56.7077 C.3       5 UNK         0.0782 
     46 C46        32.3137  -47.1734  -56.5616 C.3       11 UNK        -0.0868 
     47 S47        33.4221  -46.9212  -57.9867 S.3       11 UNK        -0.2515 
     48 C48        34.2343  -45.3507  -57.5333 C.3       11 UNK         0.0199 
     49 N          32.1911  -49.6689  -56.6937 N.am      5 UNK        -0.4607 
     50 C          31.7069  -50.8605  -57.0701 C.2       4 UNK         0.5031 
     51 O          30.5589  -51.0269  -57.4828 O.2       4 UNK        -0.5119 
     52 CA         32.6417  -52.0751  -56.9257 C.3       4 UNK         0.0263 
     53 CB         33.3601  -52.3585  -58.2545 C.3       4 UNK        -0.1967 
     54 N          33.6356  -51.9233  -55.8571 N.am      4 UNK        -0.4237 
     55 C          33.3409  -51.7985  -54.5553 C.2       3 UNK         0.4908 
     56 O          32.1905  -51.8492  -54.1158 O.2       3 UNK        -0.5102 
     57 CA         34.5103  -51.5644  -53.5774 C.3       3 UNK         0.0241 
     58 CB         35.8277  -51.1275  -54.2608 C.3       3 UNK        -0.1971 
     59 N          34.1493  -50.6217  -52.5103 N.am      3 UNK        -0.4139 
     60 C          33.7451  -49.3519  -52.6622 C.2       2 UNK         0.5016 
     61 O          33.6360  -48.7785  -53.7496 O.2       2 UNK        -0.5319 
     62 CA         33.4235  -48.5902  -51.3714 C.3       2 UNK         0.0286 
     63 CB         34.7099  -48.2484  -50.5947 C.3       2 UNK        -0.1963 
     64 N          32.7082  -47.3573  -51.6990 N.am      2 UNK        -0.4790 
     65 C          31.8654  -46.7199  -50.8789 C.2       1 UNK         0.5024 
     66 O          31.5856  -47.1416  -49.7540 O.2       1 UNK        -0.4888 
     67 H67        27.5019  -46.9113  -50.6619 H         1 UNK         0.0892 
     68 H68        28.2206  -46.2492  -52.1209 H         1 UNK         0.0892 
     69 H69        29.1374  -47.3704  -51.0909 H         1 UNK         0.0892 
     70 H70        30.4828  -44.1120  -49.9014 H         1 UNK         0.3107 
     71 H71        32.0819  -44.6630  -51.2135 H         1 UNK         0.0773 
     72 H72        31.8346  -45.5198  -53.4876 H         1 UNK         0.0680 
     73 H73        30.2371  -46.1133  -53.1703 H         1 UNK         0.0680 
     74 H74        32.5833  -43.0740  -53.3138 H         1 UNK         0.0650 
     75 H75        31.5605  -41.7439  -53.7934 H         1 UNK         0.0650 
     76 H76        33.5785  -44.5105  -55.0264 H         1 UNK         0.1397 
     77 H77        32.6184  -43.8684  -59.1568 H         1 UNK         0.1363 
     78 H78        30.5377  -41.6991  -56.0909 H         1 UNK         0.1355 
     79 H79        30.6033  -40.9312  -58.6136 H         1 UNK         0.0707 
     80 H80        31.1358  -42.1006  -59.7885 H         1 UNK         0.0707 
     81 H81        28.6741  -41.2028  -57.0635 H         1 UNK         0.1034 
     82 H82        27.7831  -40.6679  -58.4404 H         1 UNK         0.1034 
     83 H83        26.4221  -41.4444  -56.4813 H         1 UNK         0.0482 
     84 H84        24.1083  -43.4133  -59.0116 H         1 UNK         0.3460 
     85 H85        25.0892  -44.2183  -57.8128 H         1 UNK         0.3460 
     86 H86        27.7578  -44.0098  -56.9035 H         1 UNK         0.2989 
     87 H87        27.7244  -45.1558  -54.3986 H         1 UNK         0.0559 
     88 H88        24.7529  -45.8931  -54.2824 H         1 UNK         0.0848 
     89 H89        25.6886  -45.1458  -52.9939 H         1 UNK         0.0848 
     90 H90        26.0528  -46.7880  -53.4985 H         1 UNK         0.0848 
     91 H91        27.8535  -46.7366  -55.9350 H         1 UNK         0.3144 
     92 H92        25.7238  -47.9081  -58.5746 H         1 UNK         0.0727 
     93 H93        28.5942  -46.8620  -58.2756 H         1 UNK         0.0790 
     94 H94        27.3870  -46.2639  -59.4009 H         1 UNK         0.0790 
     95 H95        27.9983  -47.9014  -59.5670 H         1 UNK         0.0790 
     96 H96        27.9593  -48.8509  -56.8747 H         1 UNK         0.3215 
     97 H97        26.0679  -51.3571  -55.3228 H         1 UNK         0.0863 
     98 H98        27.5940  -53.0169  -56.3899 H         1 UNK         0.0808 
     99 H99        27.9420  -51.8825  -57.6949 H         1 UNK         0.0808 
    100 H100       26.3213  -52.5337  -57.4991 H         1 UNK         0.0808 
    101 H101       28.9084  -50.8020  -55.6851 H         1 UNK         0.3118 
    102 H102       29.1360  -48.3551  -53.2043 H         1 UNK         0.0546 
    103 H103       30.7177  -49.8587  -52.0007 H         1 UNK         0.0828 
    104 H104       29.9760  -51.2672  -52.7603 H         1 UNK         0.0828 
    105 H105       29.0529  -50.2783  -51.6397 H         1 UNK         0.0828 
    106 H106       31.1566  -49.8699  -54.5349 H         1 UNK         0.3005 
    107 H107       30.9213  -48.3612  -57.6764 H         1 UNK         0.1257 
    108 H108       31.6754  -46.2920  -56.4799 H         1 UNK         0.0775 
    109 H109       32.9075  -47.2107  -55.6481 H         1 UNK         0.0775 
    110 H110       34.9369  -45.5365  -56.7193 H         1 UNK         0.0840 
    111 H111       34.8304  -44.9996  -58.3768 H         1 UNK         0.0840 
    112 H112       33.1330  -49.6088  -56.3340 H         1 UNK         0.2987 
    113 H113       32.0182  -52.9378  -56.6811 H         1 UNK         0.0785 
    114 H114       34.0156  -51.5359  -58.5436 H         1 UNK         0.0798 
    115 H115       32.6414  -52.5015  -59.0629 H         1 UNK         0.0798 
    116 H116       33.9624  -53.2654  -58.1957 H         1 UNK         0.0798 
    117 H117       34.6041  -51.8714  -56.1384 H         1 UNK         0.3079 
    118 H118       34.6910  -52.5237  -53.0904 H         1 UNK         0.0794 
    119 H119       35.7048  -50.2124  -54.8419 H         1 UNK         0.0786 
    120 H120       36.2089  -51.9009  -54.9285 H         1 UNK         0.0786 
    121 H121       36.6070  -50.9421  -53.5214 H         1 UNK         0.0786 
    122 H122       34.1759  -51.0033  -51.5751 H         1 UNK         0.3032 
    123 H123       32.7851  -49.2290  -50.7564 H         1 UNK         0.1094 
    124 H124       34.4861  -47.7263  -49.6642 H         1 UNK         0.0794 
    125 H125       35.2660  -49.1483  -50.3293 H         1 UNK         0.0794 
    126 H126       35.3757  -47.6143  -51.1815 H         1 UNK         0.0794 
    127 H127       32.8719  -47.0250  -52.6412 H         1 UNK         0.3016 
@<TRIPOS>BOND
     1    1    2 1    
     2    1   67 1    
     3    1   68 1    
     4    1   69 1    
     5    2    3 2    
     6    2    4 am   BACKBONE|DICT|INTERRES
     7    4    5 1    
     8    4   70 1    
     9    5    6 1    
    10    5   65 1    
    11    5   71 1    
    12    6    7 1    
    13    6   72 1    
    14    6   73 1    
    15    7    8 1    
    16    8    9 1    
    17    8   74 1    
    18    8   75 1    
    19    9   10 ar   
    20    9   14 ar   
    21   10   11 ar   
    22   10   76 1    
    23   11   12 ar   
    24   11   48 1    
    25   12   13 ar   
    26   12   77 1    
    27   13   14 ar   
    28   13   15 1    
    29   14   78 1    
    30   15   16 1    
    31   15   79 1    
    32   15   80 1    
    33   16   17 1    
    34   17   18 1    
    35   17   81 1    
    36   17   82 1    
    37   18   19 1    
    38   18   22 1    
    39   18   83 1    
    40   19   20 am   BACKBONE|DICT|INTERRES
    41   19   21 2    
    42   20   84 1    
    43   20   85 1    
    44   22   23 am   BACKBONE|DICT|INTERRES
    45   22   86 1    
    46   23   24 2    
    47   23   25 1    
    48   25   26 1    
    49   25   27 1    
    50   25   87 1    
    51   26   88 1    
    52   26   89 1    
    53   26   90 1    
    54   27   28 am   BACKBONE|DICT|INTERRES
    55   27   91 1    
    56   28   29 2    
    57   28   30 1    
    58   30   31 1    
    59   30   32 1    
    60   30   92 1    
    61   31   93 1    
    62   31   94 1    
    63   31   95 1    
    64   32   33 am   BACKBONE|DICT|INTERRES
    65   32   96 1    
    66   33   34 2    
    67   33   35 1    
    68   35   36 1    
    69   35   37 1    
    70   35   97 1    
    71   36   98 1    
    72   36   99 1    
    73   36  100 1    
    74   37   38 am   BACKBONE|DICT|INTERRES
    75   37  101 1    
    76   38   39 2    
    77   38   40 1    
    78   40   41 1    
    79   40   42 1    
    80   40  102 1    
    81   41  103 1    
    82   41  104 1    
    83   41  105 1    
    84   42   43 am   BACKBONE|DICT|INTERRES
    85   42  106 1    
    86   43   44 2    
    87   43   45 1    
    88   45   46 1    
    89   45   49 1    
    90   45  107 1    
    91   46   47 1    
    92   46  108 1    
    93   46  109 1    
    94   47   48 1    
    95   48  110 1    
    96   48  111 1    
    97   49   50 am   BACKBONE|DICT|INTERRES
    98   49  112 1    
    99   50   51 2    
   100   50   52 1    
   101   52   53 1    
   102   52   54 1    
   103   52  113 1    
   104   53  114 1    
   105   53  115 1    
   106   53  116 1    
   107   54   55 am   BACKBONE|DICT|INTERRES
   108   54  117 1    
   109   55   56 2    
   110   55   57 1    
   111   57   58 1    
   112   57   59 1    
   113   57  118 1    
   114   58  119 1    
   115   58  120 1    
   116   58  121 1    
   117   59   60 am   BACKBONE|DICT|INTERRES
   118   59  122 1    
   119   60   61 2    
   120   60   62 1    
   121   62   63 1    
   122   62   64 1    
   123   62  123 1    
   124   63  124 1    
   125   63  125 1    
   126   63  126 1    
   127   64   65 am   BACKBONE|DICT|INTERRES
   128   64  127 1    
   129   65   66 2    
@<TRIPOS>SUBSTRUCTURE
     1 UNK         1 GROUP             0       ****    0 ROOT    
