@<TRIPOS>MOLECULE
3R134
127   129    1
SMALL
USER_CHARGES


@<TRIPOS>ATOM
      1 CA         37.6770  -48.1187  -53.9297 C.3       0 UNK        -0.1968 
      2 C          36.2646  -47.5988  -54.1465 C.2       0 UNK         0.4852 
      3 O          35.3329  -48.3954  -54.2688 O.2       0 UNK        -0.5359 
      4 N          36.0890  -46.2692  -54.1762 N.am      1 UNK        -0.4300 
      5 CA         34.8026  -45.5902  -54.3960 C.3       1 UNK         0.0863 
      6 C6         34.9964  -44.0595  -54.6622 C.3       11 UNK        -0.0953 
      7 S7         34.2694  -42.8545  -53.4886 S.3       11 UNK        -0.2369 
      8 C8         33.0156  -42.0222  -54.5199 C.3       11 UNK         0.0226 
      9 C9         31.8886  -42.9645  -54.9169 C.ar      11 UNK        -0.0699 
     10 C10        30.9203  -43.3289  -53.9789 C.ar      11 UNK        -0.0804 
     11 C11        29.9137  -44.2391  -54.3125 C.ar      11 UNK        -0.0871 
     12 C12        29.8748  -44.7796  -55.6020 C.ar      11 UNK        -0.1008 
     13 C13        30.8097  -44.3839  -56.5675 C.ar      11 UNK        -0.0735 
     14 C14        31.8169  -43.4806  -56.2140 C.ar      11 UNK        -0.0945 
     15 C15        30.7661  -44.9400  -57.9879 C.3       11 UNK         0.0169 
     16 S16        29.0937  -44.9929  -58.7099 S.3       11 UNK        -0.2669 
     17 C17        28.6417  -43.2236  -58.8240 C.3       11 UNK        -0.0850 
     18 CA         27.9027  -42.6546  -57.5719 C.3       10 UNK         0.0855 
     19 C          27.4616  -41.1727  -57.7668 C.2       10 UNK         0.5543 
     20 N          26.3471  -40.7353  -57.1934 N.am      10 UNK        -0.7343 
     21 O          28.1527  -40.3967  -58.4227 O.2       10 UNK        -0.5027 
     22 N          26.8596  -43.5505  -57.0357 N.am      10 UNK        -0.4495 
     23 C          25.7705  -43.9736  -57.6859 C.2       10 UNK         0.4903 
     24 O          25.4486  -43.6122  -58.8196 O.2       10 UNK        -0.4860 
     25 CA         24.9034  -45.0061  -56.9505 C.3       9 UNK         0.0227 
     26 CB         23.4287  -44.5702  -56.9027 C.3       9 UNK        -0.1964 
     27 N          25.0122  -46.2920  -57.6368 N.am      9 UNK        -0.4231 
     28 C          26.0300  -47.1481  -57.4810 C.2       9 UNK         0.5014 
     29 O          26.9215  -47.0139  -56.6418 O.2       9 UNK        -0.5270 
     30 CA         26.0660  -48.3311  -58.4538 C.3       8 UNK         0.0284 
     31 CB         26.6094  -47.8882  -59.8269 C.3       8 UNK        -0.1977 
     32 N          26.8978  -49.4076  -57.9164 N.am      8 UNK        -0.4342 
     33 C          26.7991  -50.6926  -58.2822 C.2       8 UNK         0.5039 
     34 O          25.9738  -51.1079  -59.0977 O.2       8 UNK        -0.5547 
     35 CA         27.7721  -51.6931  -57.6432 C.3       7 UNK         0.0281 
     36 CB         29.1382  -51.6535  -58.3496 C.3       7 UNK        -0.1963 
     37 N          27.9455  -51.4439  -56.2130 N.am      7 UNK        -0.4444 
     38 C          27.2024  -52.0087  -55.2504 C.2       7 UNK         0.5104 
     39 O          26.2934  -52.8097  -55.4719 O.2       7 UNK        -0.5100 
     40 CA         27.5285  -51.6449  -53.7892 C.3       6 UNK         0.0396 
     41 CB         28.3560  -52.7615  -53.1332 C.3       6 UNK        -0.1801 
     42 N          28.2464  -50.3759  -53.6595 N.am      6 UNK        -0.4747 
     43 C          27.6732  -49.1693  -53.7943 C.2       6 UNK         0.5012 
     44 O          26.4617  -49.0106  -53.9469 O.2       6 UNK        -0.5003 
     45 CA         28.5996  -47.9328  -53.7570 C.3       5 UNK         0.0782 
     46 C46        28.5507  -47.3086  -52.3390 C.3       11 UNK        -0.0868 
     47 S47        29.5992  -45.8397  -52.0983 S.3       11 UNK        -0.2515 
     48 C48        28.8873  -44.6383  -53.2644 C.3       11 UNK         0.0199 
     49 N          29.9683  -48.2118  -54.2147 N.am      5 UNK        -0.4607 
     50 C          30.2985  -48.7409  -55.4028 C.2       4 UNK         0.5031 
     51 O          29.4785  -48.9784  -56.2894 O.2       4 UNK        -0.5119 
     52 CA         31.7629  -49.1652  -55.6241 C.3       4 UNK         0.0263 
     53 CB         32.4869  -48.1650  -56.5370 C.3       4 UNK        -0.1967 
     54 N          32.5343  -49.3614  -54.3913 N.am      4 UNK        -0.4237 
     55 C          32.2470  -50.2490  -53.4258 C.2       3 UNK         0.4908 
     56 O          31.2842  -51.0161  -53.4664 O.2       3 UNK        -0.5102 
     57 CA         33.1590  -50.2518  -52.1897 C.3       3 UNK         0.0241 
     58 CB         34.3918  -51.1417  -52.4172 C.3       3 UNK        -0.1971 
     59 N          33.5788  -48.8922  -51.8420 N.am      3 UNK        -0.4139 
     60 C          32.8464  -48.0503  -51.0975 C.2       2 UNK         0.5016 
     61 O          31.8033  -48.3767  -50.5305 O.2       2 UNK        -0.5319 
     62 CA         33.3493  -46.5996  -50.9565 C.3       2 UNK         0.0286 
     63 CB         34.1283  -46.4252  -49.6431 C.3       2 UNK        -0.1963 
     64 N          34.1820  -46.1407  -52.0730 N.am      2 UNK        -0.4790 
     65 C          33.7467  -45.9805  -53.3328 C.2       1 UNK         0.5024 
     66 O          32.5932  -46.2156  -53.6822 O.2       1 UNK        -0.4888 
     67 H67        37.7164  -48.7308  -53.0292 H         1 UNK         0.0892 
     68 H68        37.9808  -48.7361  -54.7746 H         1 UNK         0.0892 
     69 H69        38.3990  -47.3093  -53.8232 H         1 UNK         0.0892 
     70 H70        36.8895  -45.6648  -54.0563 H         1 UNK         0.3107 
     71 H71        34.4237  -46.0109  -55.3300 H         1 UNK         0.0773 
     72 H72        34.6129  -43.8326  -55.6572 H         1 UNK         0.0680 
     73 H73        36.0574  -43.8156  -54.7327 H         1 UNK         0.0680 
     74 H74        33.4963  -41.5953  -55.4015 H         1 UNK         0.0650 
     75 H75        32.6025  -41.1815  -53.9607 H         1 UNK         0.0650 
     76 H76        30.9714  -42.9301  -52.9751 H         1 UNK         0.1397 
     77 H77        29.1096  -45.4972  -55.8650 H         1 UNK         0.1363 
     78 H78        32.5568  -43.1888  -56.9464 H         1 UNK         0.1355 
     79 H79        31.4126  -44.3639  -58.6516 H         1 UNK         0.0707 
     80 H80        31.1639  -45.9538  -57.9745 H         1 UNK         0.0707 
     81 H81        29.5443  -42.6440  -59.0253 H         1 UNK         0.1034 
     82 H82        28.0127  -43.1071  -59.7082 H         1 UNK         0.1034 
     83 H83        28.6421  -42.5910  -56.7749 H         1 UNK         0.0482 
     84 H84        25.7766  -41.3607  -56.6478 H         1 UNK         0.3460 
     85 H85        26.0718  -39.7734  -57.3148 H         1 UNK         0.3460 
     86 H86        27.0422  -43.9193  -56.1147 H         1 UNK         0.2989 
     87 H87        25.2556  -45.1138  -55.9220 H         1 UNK         0.0559 
     88 H88        23.0031  -44.4571  -57.9007 H         1 UNK         0.0848 
     89 H89        23.3234  -43.6110  -56.3942 H         1 UNK         0.0848 
     90 H90        22.8196  -45.2927  -56.3592 H         1 UNK         0.0848 
     91 H91        24.3498  -46.4580  -58.3810 H         1 UNK         0.3144 
     92 H92        25.0434  -48.6972  -58.5688 H         1 UNK         0.0727 
     93 H93        26.0311  -47.0586  -60.2355 H         1 UNK         0.0790 
     94 H94        26.5663  -48.6989  -60.5543 H         1 UNK         0.0790 
     95 H95        27.6465  -47.5580  -59.7560 H         1 UNK         0.0790 
     96 H96        27.5949  -49.1151  -57.2347 H         1 UNK         0.3215 
     97 H97        27.3599  -52.6947  -57.7866 H         1 UNK         0.0863 
     98 H98        29.6019  -50.6685  -58.2937 H         1 UNK         0.0808 
     99 H99        29.0333  -51.9006  -59.4069 H         1 UNK         0.0808 
    100 H100       29.8303  -52.3752  -57.9156 H         1 UNK         0.0808 
    101 H101       28.6230  -50.7324  -55.9592 H         1 UNK         0.3118 
    102 H102       26.5827  -51.5652  -53.2491 H         1 UNK         0.0546 
    103 H103       29.3085  -52.9108  -53.6433 H         1 UNK         0.0828 
    104 H104       27.8204  -53.7113  -53.1605 H         1 UNK         0.0828 
    105 H105       28.5672  -52.5388  -52.0873 H         1 UNK         0.0828 
    106 H106       29.2531  -50.4329  -53.5369 H         1 UNK         0.3005 
    107 H107       28.1789  -47.2193  -54.4638 H         1 UNK         0.1257 
    108 H108       28.8625  -48.0443  -51.5945 H         1 UNK         0.0775 
    109 H109       27.5269  -47.0319  -52.0789 H         1 UNK         0.0775 
    110 H110       27.9846  -45.0314  -53.7326 H         1 UNK         0.0840 
    111 H111       28.5734  -43.7542  -52.7076 H         1 UNK         0.0840 
    112 H112       30.7111  -47.9779  -53.5696 H         1 UNK         0.2987 
    113 H113       31.7398  -50.1295  -56.1357 H         1 UNK         0.0785 
    114 H114       32.0270  -48.1483  -57.5256 H         1 UNK         0.0798 
    115 H115       33.5361  -48.4289  -56.6718 H         1 UNK         0.0798 
    116 H116       32.4397  -47.1513  -56.1396 H         1 UNK         0.0798 
    117 H117       33.3770  -48.8031  -54.2928 H         1 UNK         0.3079 
    118 H118       32.5919  -50.6765  -51.3583 H         1 UNK         0.0794 
    119 H119       34.0930  -52.1691  -52.6298 H         1 UNK         0.0786 
    120 H120       35.0304  -51.1666  -51.5341 H         1 UNK         0.0786 
    121 H121       34.9958  -50.8002  -53.2580 H         1 UNK         0.0786 
    122 H122       34.3981  -48.5352  -52.3177 H         1 UNK         0.3032 
    123 H123       32.4653  -45.9586  -50.9198 H         1 UNK         0.1094 
    124 H124       33.5234  -46.7307  -48.7880 H         1 UNK         0.0794 
    125 H125       35.0385  -47.0260  -49.6298 H         1 UNK         0.0794 
    126 H126       34.4084  -45.3838  -49.4828 H         1 UNK         0.0794 
    127 H127       35.1510  -45.9398  -51.8723 H         1 UNK         0.3016 
@<TRIPOS>BOND
     1    1    2 1    
     2    1   67 1    
     3    1   68 1    
     4    1   69 1    
     5    2    3 2    
     6    2    4 am   BACKBONE|DICT|INTERRES
     7    4    5 1    
     8    4   70 1    
     9    5    6 1    
    10    5   65 1    
    11    5   71 1    
    12    6    7 1    
    13    6   72 1    
    14    6   73 1    
    15    7    8 1    
    16    8    9 1    
    17    8   74 1    
    18    8   75 1    
    19    9   10 ar   
    20    9   14 ar   
    21   10   11 ar   
    22   10   76 1    
    23   11   12 ar   
    24   11   48 1    
    25   12   13 ar   
    26   12   77 1    
    27   13   14 ar   
    28   13   15 1    
    29   14   78 1    
    30   15   16 1    
    31   15   79 1    
    32   15   80 1    
    33   16   17 1    
    34   17   18 1    
    35   17   81 1    
    36   17   82 1    
    37   18   19 1    
    38   18   22 1    
    39   18   83 1    
    40   19   20 am   BACKBONE|DICT|INTERRES
    41   19   21 2    
    42   20   84 1    
    43   20   85 1    
    44   22   23 am   BACKBONE|DICT|INTERRES
    45   22   86 1    
    46   23   24 2    
    47   23   25 1    
    48   25   26 1    
    49   25   27 1    
    50   25   87 1    
    51   26   88 1    
    52   26   89 1    
    53   26   90 1    
    54   27   28 am   BACKBONE|DICT|INTERRES
    55   27   91 1    
    56   28   29 2    
    57   28   30 1    
    58   30   31 1    
    59   30   32 1    
    60   30   92 1    
    61   31   93 1    
    62   31   94 1    
    63   31   95 1    
    64   32   33 am   BACKBONE|DICT|INTERRES
    65   32   96 1    
    66   33   34 2    
    67   33   35 1    
    68   35   36 1    
    69   35   37 1    
    70   35   97 1    
    71   36   98 1    
    72   36   99 1    
    73   36  100 1    
    74   37   38 am   BACKBONE|DICT|INTERRES
    75   37  101 1    
    76   38   39 2    
    77   38   40 1    
    78   40   41 1    
    79   40   42 1    
    80   40  102 1    
    81   41  103 1    
    82   41  104 1    
    83   41  105 1    
    84   42   43 am   BACKBONE|DICT|INTERRES
    85   42  106 1    
    86   43   44 2    
    87   43   45 1    
    88   45   46 1    
    89   45   49 1    
    90   45  107 1    
    91   46   47 1    
    92   46  108 1    
    93   46  109 1    
    94   47   48 1    
    95   48  110 1    
    96   48  111 1    
    97   49   50 am   BACKBONE|DICT|INTERRES
    98   49  112 1    
    99   50   51 2    
   100   50   52 1    
   101   52   53 1    
   102   52   54 1    
   103   52  113 1    
   104   53  114 1    
   105   53  115 1    
   106   53  116 1    
   107   54   55 am   BACKBONE|DICT|INTERRES
   108   54  117 1    
   109   55   56 2    
   110   55   57 1    
   111   57   58 1    
   112   57   59 1    
   113   57  118 1    
   114   58  119 1    
   115   58  120 1    
   116   58  121 1    
   117   59   60 am   BACKBONE|DICT|INTERRES
   118   59  122 1    
   119   60   61 2    
   120   60   62 1    
   121   62   63 1    
   122   62   64 1    
   123   62  123 1    
   124   63  124 1    
   125   63  125 1    
   126   63  126 1    
   127   64   65 am   BACKBONE|DICT|INTERRES
   128   64  127 1    
   129   65   66 2    
@<TRIPOS>SUBSTRUCTURE
     1 UNK         1 GROUP             0       ****    0 ROOT    
