@<TRIPOS>MOLECULE
3R134
127   129    1
SMALL
USER_CHARGES


@<TRIPOS>ATOM
      1 CA         30.6705  -43.4294  -50.5529 C.3       0 UNK        -0.1968 
      2 C          32.1138  -43.8499  -50.3153 C.2       0 UNK         0.4852 
      3 O          32.9341  -43.0251  -49.9101 O.2       0 UNK        -0.5359 
      4 N          32.4263  -45.1235  -50.5686 N.am      1 UNK        -0.4300 
      5 CA         33.7431  -45.7378  -50.4151 C.3       1 UNK         0.0863 
      6 C6         34.7653  -45.2936  -51.5017 C.3       11 UNK        -0.0953 
      7 S7         34.2435  -45.6517  -53.2143 S.3       11 UNK        -0.2369 
      8 C8         33.7553  -44.0008  -53.8020 C.3       11 UNK         0.0226 
      9 C9         32.7622  -44.0897  -54.9516 C.ar      11 UNK        -0.0699 
     10 C10        33.2094  -44.3275  -56.2563 C.ar      11 UNK        -0.0804 
     11 C11        32.3011  -44.3813  -57.3191 C.ar      11 UNK        -0.0871 
     12 C12        30.9396  -44.1980  -57.0645 C.ar      11 UNK        -0.1008 
     13 C13        30.4773  -43.9816  -55.7650 C.ar      11 UNK        -0.0735 
     14 C14        31.3938  -43.9212  -54.7112 C.ar      11 UNK        -0.0945 
     15 C15        28.9855  -43.8102  -55.5223 C.3       11 UNK         0.0169 
     16 S16        28.4175  -42.2135  -56.1805 S.3       11 UNK        -0.2669 
     17 C17        26.6145  -42.4847  -56.3259 C.3       11 UNK        -0.0850 
     18 CA         26.0888  -43.4250  -57.4616 C.3       10 UNK         0.0855 
     19 C          27.0187  -43.5738  -58.7058 C.2       10 UNK         0.5543 
     20 N          27.6035  -44.7368  -58.9705 N.am      10 UNK        -0.7343 
     21 O          27.1880  -42.6181  -59.4590 O.2       10 UNK        -0.5027 
     22 N          25.5696  -44.6835  -56.9043 N.am      10 UNK        -0.4495 
     23 C          24.7231  -45.5182  -57.5195 C.2       10 UNK         0.4903 
     24 O          24.3143  -45.3494  -58.6695 O.2       10 UNK        -0.4860 
     25 CA         24.2276  -46.7248  -56.6949 C.3       9 UNK         0.0227 
     26 CB         23.3396  -47.6759  -57.5179 C.3       9 UNK        -0.1964 
     27 N          25.3250  -47.4795  -56.0756 N.am      9 UNK        -0.4231 
     28 C          25.9705  -47.1063  -54.9598 C.2       9 UNK         0.5014 
     29 O          25.7095  -46.0600  -54.3624 O.2       9 UNK        -0.5270 
     30 CA         27.1303  -47.9707  -54.4322 C.3       8 UNK         0.0284 
     31 CB         27.0173  -48.2224  -52.9135 C.3       8 UNK        -0.1977 
     32 N          27.3825  -49.2140  -55.1649 N.am      8 UNK        -0.4342 
     33 C          26.6236  -50.3159  -55.2248 C.2       8 UNK         0.5039 
     34 O          25.5642  -50.4653  -54.6137 O.2       8 UNK        -0.5547 
     35 CA         27.1341  -51.4075  -56.1878 C.3       7 UNK         0.0281 
     36 CB         26.1466  -52.5831  -56.3498 C.3       7 UNK        -0.1963 
     37 N          27.5022  -50.8469  -57.4973 N.am      7 UNK        -0.4444 
     38 C          26.7070  -50.1378  -58.3153 C.2       7 UNK         0.5104 
     39 O          25.5136  -49.9361  -58.0976 O.2       7 UNK        -0.5100 
     40 CA         27.3728  -49.5168  -59.5596 C.3       6 UNK         0.0396 
     41 CB         26.5126  -48.4086  -60.2066 C.3       6 UNK        -0.1801 
     42 N          28.7336  -49.0324  -59.2909 N.am      6 UNK        -0.4747 
     43 C          29.0920  -48.0796  -58.4157 C.2       6 UNK         0.5012 
     44 O          28.2964  -47.4186  -57.7411 O.2       6 UNK        -0.5003 
     45 CA         30.6062  -47.8240  -58.2914 C.3       5 UNK         0.0782 
     46 C46        31.0753  -46.7936  -59.3501 C.3       11 UNK        -0.0868 
     47 S47        32.8474  -46.3670  -59.2009 S.3       11 UNK        -0.2515 
     48 C48        32.7888  -44.6021  -58.7453 C.3       11 UNK         0.0199 
     49 N          30.9997  -47.4439  -56.9335 N.am      5 UNK        -0.4607 
     50 C          30.8833  -48.2056  -55.8416 C.2       4 UNK         0.5031 
     51 O          30.2767  -49.2799  -55.8020 O.2       4 UNK        -0.5119 
     52 CA         31.5878  -47.6733  -54.5843 C.3       4 UNK         0.0263 
     53 CB         30.5913  -47.1051  -53.5657 C.3       4 UNK        -0.1967 
     54 N          32.4143  -48.6900  -53.9329 N.am      4 UNK        -0.4237 
     55 C          33.4972  -49.2630  -54.4772 C.2       3 UNK         0.4908 
     56 O          33.9285  -48.9924  -55.5994 O.2       3 UNK        -0.5102 
     57 CA         34.2391  -50.2758  -53.5927 C.3       3 UNK         0.0241 
     58 CB         35.5605  -50.7739  -54.2106 C.3       3 UNK        -0.1971 
     59 N          34.5075  -49.6741  -52.2871 N.am      3 UNK        -0.4139 
     60 C          34.3282  -50.2763  -51.1058 C.2       2 UNK         0.5016 
     61 O          33.9420  -51.4397  -50.9825 O.2       2 UNK        -0.5319 
     62 CA         34.6282  -49.4527  -49.8375 C.3       2 UNK         0.0286 
     63 CB         35.9796  -49.8733  -49.2360 C.3       2 UNK        -0.1963 
     64 N          34.6246  -47.9953  -50.0258 N.am      2 UNK        -0.4790 
     65 C          33.5472  -47.2647  -50.3449 C.2       1 UNK         0.5024 
     66 O          32.4379  -47.7550  -50.5784 O.2       1 UNK        -0.4888 
     67 H67        30.6331  -42.5998  -51.2585 H         1 UNK         0.0892 
     68 H68        30.0694  -44.2440  -50.9570 H         1 UNK         0.0892 
     69 H69        30.2160  -43.1027  -49.6180 H         1 UNK         0.0892 
     70 H70        31.7144  -45.7917  -50.8378 H         1 UNK         0.3107 
     71 H71        34.1310  -45.4366  -49.4395 H         1 UNK         0.0773 
     72 H72        34.9648  -44.2257  -51.4042 H         1 UNK         0.0680 
     73 H73        35.7306  -45.7746  -51.3376 H         1 UNK         0.0680 
     74 H74        33.3195  -43.4291  -52.9823 H         1 UNK         0.0650 
     75 H75        34.6456  -43.4545  -54.1163 H         1 UNK         0.0650 
     76 H76        34.2662  -44.4623  -56.4432 H         1 UNK         0.1397 
     77 H77        30.2270  -44.2128  -57.8769 H         1 UNK         0.1363 
     78 H78        31.0430  -43.7427  -53.7043 H         1 UNK         0.1355 
     79 H79        28.7474  -43.8718  -54.4593 H         1 UNK         0.0707 
     80 H80        28.4519  -44.6274  -56.0104 H         1 UNK         0.0707 
     81 H81        26.1856  -41.4939  -56.4848 H         1 UNK         0.1034 
     82 H82        26.2310  -42.7903  -55.3508 H         1 UNK         0.1034 
     83 H83        25.2019  -42.9275  -57.8604 H         1 UNK         0.0482 
     84 H84        27.4880  -45.5372  -58.3625 H         1 UNK         0.3460 
     85 H85        28.1694  -44.8128  -59.7986 H         1 UNK         0.3460 
     86 H86        25.8344  -44.9127  -55.9519 H         1 UNK         0.2989 
     87 H87        23.6013  -46.3220  -55.8963 H         1 UNK         0.0559 
     88 H88        23.0487  -48.5542  -56.9413 H         1 UNK         0.0848 
     89 H89        23.8423  -48.0180  -58.4225 H         1 UNK         0.0848 
     90 H90        22.4230  -47.1755  -57.8321 H         1 UNK         0.0848 
     91 H91        25.6097  -48.3305  -56.5462 H         1 UNK         0.3144 
     92 H92        28.0175  -47.3657  -54.6052 H         1 UNK         0.0727 
     93 H93        27.8352  -48.8420  -52.5468 H         1 UNK         0.0790 
     94 H94        26.0817  -48.7192  -52.6555 H         1 UNK         0.0790 
     95 H95        27.0476  -47.2839  -52.3586 H         1 UNK         0.0790 
     96 H96        28.2480  -49.2169  -55.6983 H         1 UNK         0.3215 
     97 H97        28.0507  -51.8023  -55.7461 H         1 UNK         0.0863 
     98 H98        26.5447  -53.3468  -57.0177 H         1 UNK         0.0808 
     99 H99        25.1861  -52.2556  -56.7490 H         1 UNK         0.0808 
    100 H100       25.9514  -53.0622  -55.3896 H         1 UNK         0.0808 
    101 H101       28.4751  -50.9371  -57.7557 H         1 UNK         0.3118 
    102 H102       27.4702  -50.3243  -60.2865 H         1 UNK         0.0546 
    103 H103       26.3045  -47.5944  -59.5116 H         1 UNK         0.0828 
    104 H104       25.5505  -48.8032  -60.5354 H         1 UNK         0.0828 
    105 H105       27.0030  -47.9839  -61.0821 H         1 UNK         0.0828 
    106 H106       29.4630  -49.5043  -59.8089 H         1 UNK         0.3005 
    107 H107       31.1187  -48.7672  -58.4940 H         1 UNK         0.1257 
    108 H108       30.9230  -47.1969  -60.3530 H         1 UNK         0.0775 
    109 H109       30.4719  -45.8874  -59.3102 H         1 UNK         0.0775 
    110 H110       33.7888  -44.1808  -58.8594 H         1 UNK         0.0840 
    111 H111       32.1563  -44.0621  -59.4520 H         1 UNK         0.0840 
    112 H112       31.4900  -46.5622  -56.8633 H         1 UNK         0.2987 
    113 H113       32.2530  -46.8667  -54.8926 H         1 UNK         0.0785 
    114 H114       31.1114  -46.6242  -52.7389 H         1 UNK         0.0798 
    115 H115       29.9520  -47.8843  -53.1524 H         1 UNK         0.0798 
    116 H116       29.9533  -46.3486  -54.0207 H         1 UNK         0.0798 
    117 H117       32.1383  -48.9662  -53.0012 H         1 UNK         0.3079 
    118 H118       33.5700  -51.1321  -53.4833 H         1 UNK         0.0794 
    119 H119       35.3874  -51.2457  -55.1787 H         1 UNK         0.0786 
    120 H120       36.0409  -51.5150  -53.5715 H         1 UNK         0.0786 
    121 H121       36.2659  -49.9564  -54.3645 H         1 UNK         0.0786 
    122 H122       34.8009  -48.7067  -52.2930 H         1 UNK         0.3032 
    123 H123       33.8442  -49.6940  -49.1158 H         1 UNK         0.1094 
    124 H124       36.0081  -50.9482  -49.0506 H         1 UNK         0.0794 
    125 H125       36.8096  -49.6364  -49.9030 H         1 UNK         0.0794 
    126 H126       36.1619  -49.3790  -48.2815 H         1 UNK         0.0794 
    127 H127       35.4993  -47.5198  -49.8526 H         1 UNK         0.3016 
@<TRIPOS>BOND
     1    1    2 1    
     2    1   67 1    
     3    1   68 1    
     4    1   69 1    
     5    2    3 2    
     6    2    4 am   BACKBONE|DICT|INTERRES
     7    4    5 1    
     8    4   70 1    
     9    5    6 1    
    10    5   65 1    
    11    5   71 1    
    12    6    7 1    
    13    6   72 1    
    14    6   73 1    
    15    7    8 1    
    16    8    9 1    
    17    8   74 1    
    18    8   75 1    
    19    9   10 ar   
    20    9   14 ar   
    21   10   11 ar   
    22   10   76 1    
    23   11   12 ar   
    24   11   48 1    
    25   12   13 ar   
    26   12   77 1    
    27   13   14 ar   
    28   13   15 1    
    29   14   78 1    
    30   15   16 1    
    31   15   79 1    
    32   15   80 1    
    33   16   17 1    
    34   17   18 1    
    35   17   81 1    
    36   17   82 1    
    37   18   19 1    
    38   18   22 1    
    39   18   83 1    
    40   19   20 am   BACKBONE|DICT|INTERRES
    41   19   21 2    
    42   20   84 1    
    43   20   85 1    
    44   22   23 am   BACKBONE|DICT|INTERRES
    45   22   86 1    
    46   23   24 2    
    47   23   25 1    
    48   25   26 1    
    49   25   27 1    
    50   25   87 1    
    51   26   88 1    
    52   26   89 1    
    53   26   90 1    
    54   27   28 am   BACKBONE|DICT|INTERRES
    55   27   91 1    
    56   28   29 2    
    57   28   30 1    
    58   30   31 1    
    59   30   32 1    
    60   30   92 1    
    61   31   93 1    
    62   31   94 1    
    63   31   95 1    
    64   32   33 am   BACKBONE|DICT|INTERRES
    65   32   96 1    
    66   33   34 2    
    67   33   35 1    
    68   35   36 1    
    69   35   37 1    
    70   35   97 1    
    71   36   98 1    
    72   36   99 1    
    73   36  100 1    
    74   37   38 am   BACKBONE|DICT|INTERRES
    75   37  101 1    
    76   38   39 2    
    77   38   40 1    
    78   40   41 1    
    79   40   42 1    
    80   40  102 1    
    81   41  103 1    
    82   41  104 1    
    83   41  105 1    
    84   42   43 am   BACKBONE|DICT|INTERRES
    85   42  106 1    
    86   43   44 2    
    87   43   45 1    
    88   45   46 1    
    89   45   49 1    
    90   45  107 1    
    91   46   47 1    
    92   46  108 1    
    93   46  109 1    
    94   47   48 1    
    95   48  110 1    
    96   48  111 1    
    97   49   50 am   BACKBONE|DICT|INTERRES
    98   49  112 1    
    99   50   51 2    
   100   50   52 1    
   101   52   53 1    
   102   52   54 1    
   103   52  113 1    
   104   53  114 1    
   105   53  115 1    
   106   53  116 1    
   107   54   55 am   BACKBONE|DICT|INTERRES
   108   54  117 1    
   109   55   56 2    
   110   55   57 1    
   111   57   58 1    
   112   57   59 1    
   113   57  118 1    
   114   58  119 1    
   115   58  120 1    
   116   58  121 1    
   117   59   60 am   BACKBONE|DICT|INTERRES
   118   59  122 1    
   119   60   61 2    
   120   60   62 1    
   121   62   63 1    
   122   62   64 1    
   123   62  123 1    
   124   63  124 1    
   125   63  125 1    
   126   63  126 1    
   127   64   65 am   BACKBONE|DICT|INTERRES
   128   64  127 1    
   129   65   66 2    
@<TRIPOS>SUBSTRUCTURE
     1 UNK         1 GROUP             0       ****    0 ROOT    
