@<TRIPOS>MOLECULE
3R134
127   129    1
SMALL
USER_CHARGES


@<TRIPOS>ATOM
      1 CA         37.8493  -47.3516  -51.6013 C.3       0 UNK        -0.1968 
      2 C          36.7820  -46.5456  -52.3259 C.2       0 UNK         0.4852 
      3 O          35.5950  -46.7131  -52.0407 O.2       0 UNK        -0.5359 
      4 N          37.1927  -45.6769  -53.2623 N.am      1 UNK        -0.4300 
      5 CA         36.3235  -44.8517  -54.1094 C.3       1 UNK         0.0863 
      6 C6         35.5116  -43.8159  -53.2816 C.3       11 UNK        -0.0953 
      7 S7         34.9124  -42.4204  -54.2854 S.3       11 UNK        -0.2369 
      8 C8         33.7849  -41.6216  -53.1042 C.3       11 UNK         0.0226 
      9 C9         32.3890  -42.2273  -53.1458 C.ar      11 UNK        -0.0699 
     10 C10        32.0244  -43.2502  -52.2655 C.ar      11 UNK        -0.0804 
     11 C11        30.7213  -43.7574  -52.2701 C.ar      11 UNK        -0.0871 
     12 C12        29.7802  -43.2263  -53.1562 C.ar      11 UNK        -0.1008 
     13 C13        30.1343  -42.2163  -54.0612 C.ar      11 UNK        -0.0735 
     14 C14        31.4442  -41.7283  -54.0464 C.ar      11 UNK        -0.0945 
     15 C15        29.1521  -41.5970  -55.0594 C.3       11 UNK         0.0169 
     16 S16        27.4519  -42.2671  -55.0523 S.3       11 UNK        -0.2669 
     17 C17        27.6889  -43.9063  -55.8207 C.3       11 UNK        -0.0850 
     18 CA         27.0744  -43.9929  -57.2463 C.3       10 UNK         0.0855 
     19 C          28.1007  -43.6119  -58.3585 C.2       10 UNK         0.5543 
     20 N          28.4395  -44.4901  -59.2956 N.am      10 UNK        -0.7343 
     21 O          28.5911  -42.4868  -58.3846 O.2       10 UNK        -0.5027 
     22 N          26.3951  -45.2813  -57.4486 N.am      10 UNK        -0.4495 
     23 C          25.4673  -45.5145  -58.3858 C.2       10 UNK         0.4903 
     24 O          25.0017  -44.6423  -59.1215 O.2       10 UNK        -0.4860 
     25 CA         25.0027  -46.9764  -58.5308 C.3       9 UNK         0.0227 
     26 CB         24.2351  -47.2367  -59.8438 C.3       9 UNK        -0.1964 
     27 N          26.0997  -47.9395  -58.3781 N.am      9 UNK        -0.4231 
     28 C          27.2375  -48.0125  -59.0885 C.2       9 UNK         0.5014 
     29 O          27.5237  -47.2382  -60.0024 O.2       9 UNK        -0.5270 
     30 CA         28.2550  -49.1033  -58.6980 C.3       8 UNK         0.0284 
     31 CB         29.5026  -48.4618  -58.0664 C.3       8 UNK        -0.1977 
     32 N          27.7195  -50.0987  -57.7676 N.am      8 UNK        -0.4342 
     33 C          26.7987  -51.0269  -58.0591 C.2       8 UNK         0.5039 
     34 O          26.3594  -51.2309  -59.1910 O.2       8 UNK        -0.5547 
     35 CA         26.2345  -51.8183  -56.8688 C.3       7 UNK         0.0281 
     36 CB         27.1231  -53.0312  -56.5512 C.3       7 UNK        -0.1963 
     37 N          26.0908  -50.9764  -55.6748 N.am      7 UNK        -0.4444 
     38 C          25.1482  -50.0347  -55.5226 C.2       7 UNK         0.5104 
     39 O          24.2798  -49.7972  -56.3612 O.2       7 UNK        -0.5100 
     40 CA         25.1956  -49.1937  -54.2354 C.3       6 UNK         0.0396 
     41 CB         24.4695  -49.9181  -53.0912 C.3       6 UNK        -0.1801 
     42 N          26.5593  -48.8608  -53.8178 N.am      6 UNK        -0.4747 
     43 C          27.3544  -47.9809  -54.4447 C.2       6 UNK         0.5012 
     44 O          27.0185  -47.3370  -55.4403 O.2       6 UNK        -0.5003 
     45 CA         28.7810  -47.8168  -53.8817 C.3       5 UNK         0.0782 
     46 C46        28.8039  -46.7581  -52.7517 C.3       11 UNK        -0.0868 
     47 S47        30.4703  -46.5108  -52.0411 S.3       11 UNK        -0.2515 
     48 C48        30.3233  -44.8566  -51.2949 C.3       11 UNK         0.0199 
     49 N          29.4063  -49.0757  -53.4578 N.am      5 UNK        -0.4607 
     50 C          29.5521  -50.1824  -54.1958 C.2       4 UNK         0.5031 
     51 O          29.0224  -50.3539  -55.2933 O.2       4 UNK        -0.5119 
     52 CA         30.5100  -51.2353  -53.6273 C.3       4 UNK         0.0263 
     53 CB         30.4686  -52.5647  -54.4022 C.3       4 UNK        -0.1967 
     54 N          31.8555  -50.6769  -53.7099 N.am      4 UNK        -0.4237 
     55 C          32.5171  -50.0934  -52.7065 C.2       3 UNK         0.4908 
     56 O          32.1070  -50.0527  -51.5462 O.2       3 UNK        -0.5102 
     57 CA         33.8525  -49.4223  -53.0632 C.3       3 UNK         0.0241 
     58 CB         34.8329  -50.3933  -53.7534 C.3       3 UNK        -0.1971 
     59 N          33.6999  -48.1796  -53.8311 N.am      3 UNK        -0.4139 
     60 C          33.1804  -48.0009  -55.0583 C.2       2 UNK         0.5016 
     61 O          32.7020  -48.9082  -55.7404 O.2       2 UNK        -0.5319 
     62 CA         33.2205  -46.5756  -55.6505 C.3       2 UNK         0.0286 
     63 CB         31.8237  -45.9331  -55.6669 C.3       2 UNK        -0.1963 
     64 N          34.1501  -45.6799  -54.9571 N.am      2 UNK        -0.4790 
     65 C          35.4856  -45.7629  -55.0360 C.2       1 UNK         0.5024 
     66 O          36.0705  -46.5483  -55.7850 O.2       1 UNK        -0.4888 
     67 H67        37.8024  -47.1571  -50.5303 H         1 UNK         0.0892 
     68 H68        38.8530  -47.1057  -51.9477 H         1 UNK         0.0892 
     69 H69        37.6858  -48.4169  -51.7620 H         1 UNK         0.0892 
     70 H70        38.1796  -45.6104  -53.4699 H         1 UNK         0.3107 
     71 H71        36.9987  -44.2990  -54.7649 H         1 UNK         0.0773 
     72 H72        34.6850  -44.2848  -52.7475 H         1 UNK         0.0680 
     73 H73        36.1520  -43.3889  -52.5081 H         1 UNK         0.0680 
     74 H74        34.1990  -41.6790  -52.0963 H         1 UNK         0.0650 
     75 H75        33.7286  -40.5589  -53.3446 H         1 UNK         0.0650 
     76 H76        32.7484  -43.6397  -51.5631 H         1 UNK         0.1397 
     77 H77        28.7699  -43.6027  -53.1264 H         1 UNK         0.1363 
     78 H78        31.7275  -40.9391  -54.7299 H         1 UNK         0.1355 
     79 H79        29.5644  -41.6865  -56.0647 H         1 UNK         0.0707 
     80 H80        29.0850  -40.5281  -54.8520 H         1 UNK         0.0707 
     81 H81        27.1993  -44.6169  -55.1532 H         1 UNK         0.1034 
     82 H82        28.7433  -44.1908  -55.8168 H         1 UNK         0.1034 
     83 H83        26.2883  -43.2382  -57.3148 H         1 UNK         0.0482 
     84 H84        29.0980  -44.2125  -60.0053 H         1 UNK         0.3460 
     85 H85        28.0147  -45.4095  -59.3421 H         1 UNK         0.3460 
     86 H86        26.7023  -46.0549  -56.8653 H         1 UNK         0.2989 
     87 H87        24.3175  -47.1622  -57.7026 H         1 UNK         0.0559 
     88 H88        24.8496  -47.0257  -60.7197 H         1 UNK         0.0848 
     89 H89        23.3465  -46.6079  -59.9100 H         1 UNK         0.0848 
     90 H90        23.9029  -48.2729  -59.9088 H         1 UNK         0.0848 
     91 H91        25.9828  -48.6052  -57.6265 H         1 UNK         0.3144 
     92 H92        28.5534  -49.6176  -59.6136 H         1 UNK         0.0727 
     93 H93        30.2519  -49.2112  -57.8090 H         1 UNK         0.0790 
     94 H94        29.2524  -47.9156  -57.1571 H         1 UNK         0.0790 
     95 H95        29.9726  -47.7555  -58.7522 H         1 UNK         0.0790 
     96 H96        28.0869  -50.0748  -56.8162 H         1 UNK         0.3215 
     97 H97        25.2447  -52.1857  -57.1492 H         1 UNK         0.0863 
     98 H98        26.7364  -53.6000  -55.7056 H         1 UNK         0.0808 
     99 H99        28.1457  -52.7337  -56.3204 H         1 UNK         0.0808 
    100 H100       27.1697  -53.7096  -57.4041 H         1 UNK         0.0808 
    101 H101       26.8149  -51.0526  -54.9740 H         1 UNK         0.3118 
    102 H102       24.6651  -48.2593  -54.4319 H         1 UNK         0.0546 
    103 H103       23.4425  -50.1570  -53.3714 H         1 UNK         0.0828 
    104 H104       24.4222  -49.2980  -52.1958 H         1 UNK         0.0828 
    105 H105       24.9605  -50.8552  -52.8260 H         1 UNK         0.0828 
    106 H106       26.9266  -49.3467  -53.0120 H         1 UNK         0.3005 
    107 H107       29.3898  -47.4393  -54.7043 H         1 UNK         0.1257 
    108 H108       28.1342  -47.0464  -51.9390 H         1 UNK         0.0775 
    109 H109       28.4319  -45.8067  -53.1306 H         1 UNK         0.0775 
    110 H110       29.3063  -44.6974  -50.9331 H         1 UNK         0.0840 
    111 H111       30.9635  -44.8175  -50.4122 H         1 UNK         0.0840 
    112 H112       29.9091  -49.0251  -52.5817 H         1 UNK         0.2987 
    113 H113       30.2307  -51.4336  -52.5903 H         1 UNK         0.0785 
    114 H114       30.6995  -52.4287  -55.4598 H         1 UNK         0.0798 
    115 H115       29.4809  -53.0214  -54.3347 H         1 UNK         0.0798 
    116 H116       31.1830  -53.2803  -53.9951 H         1 UNK         0.0798 
    117 H117       32.2109  -50.4999  -54.6456 H         1 UNK         0.3079 
    118 H118       34.3088  -49.1286  -52.1166 H         1 UNK         0.0794 
    119 H119       34.4894  -50.7006  -54.7413 H         1 UNK         0.0786 
    120 H120       34.9677  -51.2982  -53.1595 H         1 UNK         0.0786 
    121 H121       35.8152  -49.9357  -53.8728 H         1 UNK         0.0786 
    122 H122       34.0775  -47.3628  -53.3619 H         1 UNK         0.3032 
    123 H123       33.5543  -46.6772  -56.6858 H         1 UNK         0.1094 
    124 H124       31.8366  -44.9707  -56.1792 H         1 UNK         0.0794 
    125 H125       31.1097  -46.5668  -56.1931 H         1 UNK         0.0794 
    126 H126       31.4422  -45.7654  -54.6608 H         1 UNK         0.0794 
    127 H127       33.7462  -44.9894  -54.3392 H         1 UNK         0.3016 
@<TRIPOS>BOND
     1    1    2 1    
     2    1   67 1    
     3    1   68 1    
     4    1   69 1    
     5    2    3 2    
     6    2    4 am   BACKBONE|DICT|INTERRES
     7    4    5 1    
     8    4   70 1    
     9    5    6 1    
    10    5   65 1    
    11    5   71 1    
    12    6    7 1    
    13    6   72 1    
    14    6   73 1    
    15    7    8 1    
    16    8    9 1    
    17    8   74 1    
    18    8   75 1    
    19    9   10 ar   
    20    9   14 ar   
    21   10   11 ar   
    22   10   76 1    
    23   11   12 ar   
    24   11   48 1    
    25   12   13 ar   
    26   12   77 1    
    27   13   14 ar   
    28   13   15 1    
    29   14   78 1    
    30   15   16 1    
    31   15   79 1    
    32   15   80 1    
    33   16   17 1    
    34   17   18 1    
    35   17   81 1    
    36   17   82 1    
    37   18   19 1    
    38   18   22 1    
    39   18   83 1    
    40   19   20 am   BACKBONE|DICT|INTERRES
    41   19   21 2    
    42   20   84 1    
    43   20   85 1    
    44   22   23 am   BACKBONE|DICT|INTERRES
    45   22   86 1    
    46   23   24 2    
    47   23   25 1    
    48   25   26 1    
    49   25   27 1    
    50   25   87 1    
    51   26   88 1    
    52   26   89 1    
    53   26   90 1    
    54   27   28 am   BACKBONE|DICT|INTERRES
    55   27   91 1    
    56   28   29 2    
    57   28   30 1    
    58   30   31 1    
    59   30   32 1    
    60   30   92 1    
    61   31   93 1    
    62   31   94 1    
    63   31   95 1    
    64   32   33 am   BACKBONE|DICT|INTERRES
    65   32   96 1    
    66   33   34 2    
    67   33   35 1    
    68   35   36 1    
    69   35   37 1    
    70   35   97 1    
    71   36   98 1    
    72   36   99 1    
    73   36  100 1    
    74   37   38 am   BACKBONE|DICT|INTERRES
    75   37  101 1    
    76   38   39 2    
    77   38   40 1    
    78   40   41 1    
    79   40   42 1    
    80   40  102 1    
    81   41  103 1    
    82   41  104 1    
    83   41  105 1    
    84   42   43 am   BACKBONE|DICT|INTERRES
    85   42  106 1    
    86   43   44 2    
    87   43   45 1    
    88   45   46 1    
    89   45   49 1    
    90   45  107 1    
    91   46   47 1    
    92   46  108 1    
    93   46  109 1    
    94   47   48 1    
    95   48  110 1    
    96   48  111 1    
    97   49   50 am   BACKBONE|DICT|INTERRES
    98   49  112 1    
    99   50   51 2    
   100   50   52 1    
   101   52   53 1    
   102   52   54 1    
   103   52  113 1    
   104   53  114 1    
   105   53  115 1    
   106   53  116 1    
   107   54   55 am   BACKBONE|DICT|INTERRES
   108   54  117 1    
   109   55   56 2    
   110   55   57 1    
   111   57   58 1    
   112   57   59 1    
   113   57  118 1    
   114   58  119 1    
   115   58  120 1    
   116   58  121 1    
   117   59   60 am   BACKBONE|DICT|INTERRES
   118   59  122 1    
   119   60   61 2    
   120   60   62 1    
   121   62   63 1    
   122   62   64 1    
   123   62  123 1    
   124   63  124 1    
   125   63  125 1    
   126   63  126 1    
   127   64   65 am   BACKBONE|DICT|INTERRES
   128   64  127 1    
   129   65   66 2    
@<TRIPOS>SUBSTRUCTURE
     1 UNK         1 GROUP             0       ****    0 ROOT    
