@<TRIPOS>MOLECULE
3R134
127   129    1
SMALL
USER_CHARGES


@<TRIPOS>ATOM
      1 CA         38.5860  -48.0658  -51.7263 C.3       0 UNK        -0.1968 
      2 C          37.4786  -47.0534  -51.9775 C.2       0 UNK         0.4852 
      3 O          37.0937  -46.3298  -51.0577 O.2       0 UNK        -0.5359 
      4 N          36.9525  -47.0081  -53.2105 N.am      1 UNK        -0.4300 
      5 CA         35.8914  -46.1191  -53.7137 C.3       1 UNK         0.0863 
      6 C6         36.2239  -44.6044  -53.5616 C.3       11 UNK        -0.0953 
      7 S7         35.9117  -43.6479  -55.0842 S.3       11 UNK        -0.2369 
      8 C8         34.6672  -42.4265  -54.5564 C.3       11 UNK         0.0226 
      9 C9         33.2512  -42.9584  -54.7161 C.ar      11 UNK        -0.0699 
     10 C10        32.5426  -43.4382  -53.6119 C.ar      11 UNK        -0.0804 
     11 C11        31.2461  -43.9389  -53.7629 C.ar      11 UNK        -0.0871 
     12 C12        30.6696  -43.9602  -55.0381 C.ar      11 UNK        -0.1008 
     13 C13        31.3532  -43.4623  -56.1540 C.ar      11 UNK        -0.0735 
     14 C14        32.6460  -42.9606  -55.9766 C.ar      11 UNK        -0.0945 
     15 C15        30.7538  -43.4473  -57.5644 C.3       11 UNK         0.0169 
     16 S16        29.2697  -44.4834  -57.8245 S.3       11 UNK        -0.2669 
     17 C17        27.9329  -43.4144  -57.1796 C.3       11 UNK        -0.0850 
     18 CA         26.5311  -43.7843  -57.7299 C.3       10 UNK         0.0855 
     19 C          26.3581  -43.3871  -59.2277 C.2       10 UNK         0.5543 
     20 N          26.0723  -44.3066  -60.1427 N.am      10 UNK        -0.7343 
     21 O          26.4702  -42.2102  -59.5625 O.2       10 UNK        -0.5027 
     22 N          26.1738  -45.1751  -57.4085 N.am      10 UNK        -0.4495 
     23 C          24.9210  -45.6476  -57.3624 C.2       10 UNK         0.4903 
     24 O          23.9216  -44.9318  -57.4456 O.2       10 UNK        -0.4860 
     25 CA         24.7568  -47.1744  -57.2083 C.3       9 UNK         0.0227 
     26 CB         23.4086  -47.6849  -57.7593 C.3       9 UNK        -0.1964 
     27 N          25.8691  -47.9482  -57.7752 N.am      9 UNK        -0.4231 
     28 C          26.3017  -47.9468  -59.0464 C.2       9 UNK         0.5014 
     29 O          25.8007  -47.2589  -59.9371 O.2       9 UNK        -0.5270 
     30 CA         27.5089  -48.8367  -59.3869 C.3       8 UNK         0.0284 
     31 CB         28.7195  -47.9757  -59.7897 C.3       8 UNK        -0.1977 
     32 N          27.8926  -49.7045  -58.2681 N.am      8 UNK        -0.4342 
     33 C          27.6741  -51.0247  -58.2197 C.2       8 UNK         0.5039 
     34 O          27.1236  -51.6623  -59.1187 O.2       8 UNK        -0.5547 
     35 CA         28.1574  -51.7740  -56.9675 C.3       7 UNK         0.0281 
     36 CB         29.6521  -52.1155  -57.0835 C.3       7 UNK        -0.1963 
     37 N          27.9122  -51.0690  -55.7064 N.am      7 UNK        -0.4444 
     38 C          26.7024  -50.9085  -55.1500 C.2       7 UNK         0.5104 
     39 O          25.6468  -51.2119  -55.7053 O.2       7 UNK        -0.5100 
     40 CA         26.6625  -50.3261  -53.7286 C.3       6 UNK         0.0396 
     41 CB         27.1741  -51.3512  -52.7026 C.3       6 UNK        -0.1801 
     42 N          27.4630  -49.1066  -53.6438 N.am      6 UNK        -0.4747 
     43 C          26.9645  -47.8635  -53.7199 C.2       6 UNK         0.5012 
     44 O          25.7594  -47.6147  -53.7469 O.2       6 UNK        -0.5003 
     45 CA         27.9662  -46.6898  -53.8060 C.3       5 UNK         0.0782 
     46 C46        28.0833  -45.9658  -52.4403 C.3       11 UNK        -0.0868 
     47 S47        28.7007  -44.2566  -52.5984 S.3       11 UNK        -0.2515 
     48 C48        30.5101  -44.4931  -52.5455 C.3       11 UNK         0.0199 
     49 N          29.2754  -47.1087  -54.3252 N.am      5 UNK        -0.4607 
     50 C          29.4845  -47.5768  -55.5635 C.2       4 UNK         0.5031 
     51 O          28.5976  -47.6591  -56.4117 O.2       4 UNK        -0.5119 
     52 CA         30.8795  -48.1347  -55.8909 C.3       4 UNK         0.0263 
     53 CB         31.7381  -47.1011  -56.6311 C.3       4 UNK        -0.1967 
     54 N          31.6017  -48.6352  -54.7171 N.am      4 UNK        -0.4237 
     55 C          31.2281  -49.7127  -54.0087 C.2       3 UNK         0.4908 
     56 O          30.2090  -50.3590  -54.2545 O.2       3 UNK        -0.5102 
     57 CA         32.1083  -50.1393  -52.8202 C.3       3 UNK         0.0241 
     58 CB         33.1103  -51.2174  -53.2614 C.3       3 UNK        -0.1971 
     59 N          32.8319  -49.0328  -52.1907 N.am      3 UNK        -0.4139 
     60 C          32.2516  -48.0082  -51.5520 C.2       2 UNK         0.5016 
     61 O          31.0362  -47.9117  -51.3812 O.2       2 UNK        -0.5319 
     62 CA         33.1725  -46.8817  -51.0476 C.3       2 UNK         0.0286 
     63 CB         33.5636  -47.1334  -49.5830 C.3       2 UNK        -0.1963 
     64 N          34.3926  -46.6522  -51.8331 N.am      2 UNK        -0.4790 
     65 C          34.4932  -46.4657  -53.1576 C.2       1 UNK         0.5024 
     66 O          33.5488  -46.5927  -53.9347 O.2       1 UNK        -0.4888 
     67 H67        38.8264  -48.6399  -52.6209 H         1 UNK         0.0892 
     68 H68        38.2855  -48.7639  -50.9456 H         1 UNK         0.0892 
     69 H69        39.4914  -47.5560  -51.3977 H         1 UNK         0.0892 
     70 H70        37.3077  -47.6559  -53.9008 H         1 UNK         0.3107 
     71 H71        35.8477  -46.3518  -54.7792 H         1 UNK         0.0773 
     72 H72        35.7063  -44.1550  -52.7120 H         1 UNK         0.0680 
     73 H73        37.2849  -44.4708  -53.3456 H         1 UNK         0.0680 
     74 H74        34.8567  -42.1127  -53.5288 H         1 UNK         0.0650 
     75 H75        34.7821  -41.5307  -55.1684 H         1 UNK         0.0650 
     76 H76        33.0090  -43.4365  -52.6363 H         1 UNK         0.1397 
     77 H77        29.6865  -44.3844  -55.1537 H         1 UNK         0.1363 
     78 H78        33.1942  -42.5813  -56.8284 H         1 UNK         0.1355 
     79 H79        30.5324  -42.4178  -57.8485 H         1 UNK         0.0707 
     80 H80        31.5139  -43.7986  -58.2638 H         1 UNK         0.0707 
     81 H81        28.1636  -42.3703  -57.3993 H         1 UNK         0.1034 
     82 H82        27.9140  -43.4826  -56.0921 H         1 UNK         0.1034 
     83 H83        25.8223  -43.1504  -57.1936 H         1 UNK         0.0482 
     84 H84        25.9720  -45.2856  -59.8952 H         1 UNK         0.3460 
     85 H85        25.9593  -44.0229  -61.1024 H         1 UNK         0.3460 
     86 H86        26.9458  -45.8265  -57.3558 H         1 UNK         0.2989 
     87 H87        24.7646  -47.3717  -56.1373 H         1 UNK         0.0559 
     88 H88        23.3080  -48.7619  -57.6250 H         1 UNK         0.0848 
     89 H89        23.2975  -47.4668  -58.8220 H         1 UNK         0.0848 
     90 H90        22.5701  -47.2169  -57.2421 H         1 UNK         0.0848 
     91 H91        26.3864  -48.5129  -57.1167 H         1 UNK         0.3144 
     92 H92        27.2239  -49.4360  -60.2539 H         1 UNK         0.0727 
     93 H93        29.5706  -48.5959  -60.0706 H         1 UNK         0.0790 
     94 H94        29.0383  -47.3168  -58.9824 H         1 UNK         0.0790 
     95 H95        28.4829  -47.3438  -60.6469 H         1 UNK         0.0790 
     96 H96        28.3256  -49.2341  -57.4780 H         1 UNK         0.3215 
     97 H97        27.6070  -52.7168  -56.9255 H         1 UNK         0.0863 
     98 H98        29.9867  -52.7218  -56.2415 H         1 UNK         0.0808 
     99 H99        30.2730  -51.2207  -57.1166 H         1 UNK         0.0808 
    100 H100       29.8527  -52.6848  -57.9922 H         1 UNK         0.0808 
    101 H101       28.7365  -50.8070  -55.1669 H         1 UNK         0.3118 
    102 H102       25.6198  -50.1115  -53.4847 H         1 UNK         0.0546 
    103 H103       26.5918  -52.2724  -52.7491 H         1 UNK         0.0828 
    104 H104       27.0891  -50.9665  -51.6862 H         1 UNK         0.0828 
    105 H105       28.2181  -51.6172  -52.8710 H         1 UNK         0.0828 
    106 H106       28.4686  -49.2271  -53.6474 H         1 UNK         0.3005 
    107 H107       27.5381  -45.9912  -54.5291 H         1 UNK         0.1257 
    108 H108       28.7028  -46.5311  -51.7418 H         1 UNK         0.0775 
    109 H109       27.1043  -45.8839  -51.9632 H         1 UNK         0.0775 
    110 H110       30.8842  -44.0279  -51.6323 H         1 UNK         0.0840 
    111 H111       30.7437  -45.5520  -52.4718 H         1 UNK         0.0840 
    112 H112       30.0439  -47.1119  -53.6702 H         1 UNK         0.2987 
    113 H113       30.7314  -48.9769  -56.5682 H         1 UNK         0.0785 
    114 H114       31.9532  -46.2350  -56.0072 H         1 UNK         0.0798 
    115 H115       31.2330  -46.7426  -57.5284 H         1 UNK         0.0798 
    116 H116       32.6904  -47.5280  -56.9449 H         1 UNK         0.0798 
    117 H117       32.4138  -48.0981  -54.4240 H         1 UNK         0.3079 
    118 H118       31.4463  -50.5742  -52.0682 H         1 UNK         0.0794 
    119 H119       33.8175  -50.8351  -53.9988 H         1 UNK         0.0786 
    120 H120       32.5953  -52.0666  -53.7135 H         1 UNK         0.0786 
    121 H121       33.6803  -51.6006  -52.4147 H         1 UNK         0.0786 
    122 H122       33.8366  -49.0234  -52.2877 H         1 UNK         0.3032 
    123 H123       32.5968  -45.9566  -51.0844 H         1 UNK         0.1094 
    124 H124       34.1876  -48.0221  -49.4798 H         1 UNK         0.0794 
    125 H125       34.1131  -46.2883  -49.1678 H         1 UNK         0.0794 
    126 H126       32.6796  -47.2800  -48.9603 H         1 UNK         0.0794 
    127 H127       35.2562  -46.5365  -51.3057 H         1 UNK         0.3016 
@<TRIPOS>BOND
     1    1    2 1    
     2    1   67 1    
     3    1   68 1    
     4    1   69 1    
     5    2    3 2    
     6    2    4 am   BACKBONE|DICT|INTERRES
     7    4    5 1    
     8    4   70 1    
     9    5    6 1    
    10    5   65 1    
    11    5   71 1    
    12    6    7 1    
    13    6   72 1    
    14    6   73 1    
    15    7    8 1    
    16    8    9 1    
    17    8   74 1    
    18    8   75 1    
    19    9   10 ar   
    20    9   14 ar   
    21   10   11 ar   
    22   10   76 1    
    23   11   12 ar   
    24   11   48 1    
    25   12   13 ar   
    26   12   77 1    
    27   13   14 ar   
    28   13   15 1    
    29   14   78 1    
    30   15   16 1    
    31   15   79 1    
    32   15   80 1    
    33   16   17 1    
    34   17   18 1    
    35   17   81 1    
    36   17   82 1    
    37   18   19 1    
    38   18   22 1    
    39   18   83 1    
    40   19   20 am   BACKBONE|DICT|INTERRES
    41   19   21 2    
    42   20   84 1    
    43   20   85 1    
    44   22   23 am   BACKBONE|DICT|INTERRES
    45   22   86 1    
    46   23   24 2    
    47   23   25 1    
    48   25   26 1    
    49   25   27 1    
    50   25   87 1    
    51   26   88 1    
    52   26   89 1    
    53   26   90 1    
    54   27   28 am   BACKBONE|DICT|INTERRES
    55   27   91 1    
    56   28   29 2    
    57   28   30 1    
    58   30   31 1    
    59   30   32 1    
    60   30   92 1    
    61   31   93 1    
    62   31   94 1    
    63   31   95 1    
    64   32   33 am   BACKBONE|DICT|INTERRES
    65   32   96 1    
    66   33   34 2    
    67   33   35 1    
    68   35   36 1    
    69   35   37 1    
    70   35   97 1    
    71   36   98 1    
    72   36   99 1    
    73   36  100 1    
    74   37   38 am   BACKBONE|DICT|INTERRES
    75   37  101 1    
    76   38   39 2    
    77   38   40 1    
    78   40   41 1    
    79   40   42 1    
    80   40  102 1    
    81   41  103 1    
    82   41  104 1    
    83   41  105 1    
    84   42   43 am   BACKBONE|DICT|INTERRES
    85   42  106 1    
    86   43   44 2    
    87   43   45 1    
    88   45   46 1    
    89   45   49 1    
    90   45  107 1    
    91   46   47 1    
    92   46  108 1    
    93   46  109 1    
    94   47   48 1    
    95   48  110 1    
    96   48  111 1    
    97   49   50 am   BACKBONE|DICT|INTERRES
    98   49  112 1    
    99   50   51 2    
   100   50   52 1    
   101   52   53 1    
   102   52   54 1    
   103   52  113 1    
   104   53  114 1    
   105   53  115 1    
   106   53  116 1    
   107   54   55 am   BACKBONE|DICT|INTERRES
   108   54  117 1    
   109   55   56 2    
   110   55   57 1    
   111   57   58 1    
   112   57   59 1    
   113   57  118 1    
   114   58  119 1    
   115   58  120 1    
   116   58  121 1    
   117   59   60 am   BACKBONE|DICT|INTERRES
   118   59  122 1    
   119   60   61 2    
   120   60   62 1    
   121   62   63 1    
   122   62   64 1    
   123   62  123 1    
   124   63  124 1    
   125   63  125 1    
   126   63  126 1    
   127   64   65 am   BACKBONE|DICT|INTERRES
   128   64  127 1    
   129   65   66 2    
@<TRIPOS>SUBSTRUCTURE
     1 UNK         1 GROUP             0       ****    0 ROOT    
