@<TRIPOS>MOLECULE
3R134
127   129    1
SMALL
USER_CHARGES


@<TRIPOS>ATOM
      1 CA         36.2237  -45.7218  -52.4255 C.3       0 UNK        -0.1968 
      2 C          35.2145  -45.8875  -53.5515 C.2       0 UNK         0.4852 
      3 O          34.1165  -46.3898  -53.3125 O.2       0 UNK        -0.5359 
      4 N          35.5832  -45.4726  -54.7725 N.am      1 UNK        -0.4300 
      5 CA         34.8069  -45.5054  -56.0250 C.3       1 UNK         0.0863 
      6 C6         33.4543  -44.7464  -55.9669 C.3       11 UNK        -0.0953 
      7 S7         33.6578  -42.9674  -55.6246 S.3       11 UNK        -0.2369 
      8 C8         33.0144  -42.8347  -53.9192 C.3       11 UNK         0.0226 
      9 C9         31.5149  -43.0867  -53.7387 C.ar      11 UNK        -0.0699 
     10 C10        31.0367  -43.3325  -52.4462 C.ar      11 UNK        -0.0804 
     11 C11        29.6721  -43.5230  -52.2090 C.ar      11 UNK        -0.0871 
     12 C12        28.7771  -43.4682  -53.2785 C.ar      11 UNK        -0.1008 
     13 C13        29.2370  -43.2463  -54.5769 C.ar      11 UNK        -0.0735 
     14 C14        30.6021  -43.0491  -54.8028 C.ar      11 UNK        -0.0945 
     15 C15        28.2509  -43.2304  -55.7304 C.3       11 UNK         0.0169 
     16 S16        27.8571  -41.5324  -56.2422 S.3       11 UNK        -0.2669 
     17 C17        26.2440  -41.7301  -57.0861 C.3       11 UNK        -0.0850 
     18 CA         26.1920  -42.6660  -58.3274 C.3       10 UNK         0.0855 
     19 C          27.2428  -42.3061  -59.4162 C.2       10 UNK         0.5543 
     20 N          26.9900  -41.2615  -60.1936 N.am      10 UNK        -0.7343 
     21 O          28.2905  -42.9361  -59.5428 O.2       10 UNK        -0.5027 
     22 N          26.2013  -44.0823  -57.9354 N.am      10 UNK        -0.4495 
     23 C          25.8004  -45.0979  -58.7066 C.2       10 UNK         0.4903 
     24 O          25.3382  -44.9580  -59.8409 O.2       10 UNK        -0.4860 
     25 CA         25.9076  -46.4997  -58.0742 C.3       9 UNK         0.0227 
     26 CB         25.4577  -47.6232  -59.0327 C.3       9 UNK        -0.1964 
     27 N          27.2362  -46.8009  -57.5251 N.am      9 UNK        -0.4231 
     28 C          28.4020  -46.8298  -58.1928 C.2       9 UNK         0.5014 
     29 O          28.5479  -46.4732  -59.3621 O.2       9 UNK        -0.5270 
     30 CA         29.6023  -47.4337  -57.4419 C.3       8 UNK         0.0284 
     31 CB         30.2162  -46.4285  -56.4541 C.3       8 UNK        -0.1977 
     32 N          29.2460  -48.6694  -56.7393 N.am      8 UNK        -0.4342 
     33 C          28.8560  -49.8073  -57.3360 C.2       8 UNK         0.5039 
     34 O          28.8458  -49.9786  -58.5553 O.2       8 UNK        -0.5547 
     35 CA         28.3738  -50.9424  -56.4187 C.3       7 UNK         0.0281 
     36 CB         29.5499  -51.8182  -55.9534 C.3       7 UNK        -0.1963 
     37 N          27.6435  -50.4188  -55.2616 N.am      7 UNK        -0.4444 
     38 C          26.3607  -50.0283  -55.2984 C.2       7 UNK         0.5104 
     39 O          25.6334  -50.1611  -56.2822 O.2       7 UNK        -0.5100 
     40 CA         25.7830  -49.3741  -54.0297 C.3       6 UNK         0.0396 
     41 CB         25.0443  -50.4195  -53.1792 C.3       6 UNK        -0.1801 
     42 N          26.7916  -48.7068  -53.2028 N.am      6 UNK        -0.4747 
     43 C          27.4370  -47.5789  -53.5369 C.2       6 UNK         0.5012 
     44 O          27.2327  -46.9579  -54.5817 O.2       6 UNK        -0.5003 
     45 CA         28.5398  -47.1105  -52.5617 C.3       5 UNK         0.0782 
     46 C46        27.9322  -46.2529  -51.4246 C.3       11 UNK        -0.0868 
     47 S47        29.2181  -45.5317  -50.3460 S.3       11 UNK        -0.2515 
     48 C48        29.1603  -43.7683  -50.7970 C.3       11 UNK         0.0199 
     49 N          29.3200  -48.2351  -52.0241 N.am      5 UNK        -0.4607 
     50 C          30.0121  -49.1162  -52.7534 C.2       4 UNK         0.5031 
     51 O          30.0796  -49.0841  -53.9853 O.2       4 UNK        -0.5119 
     52 CA         30.6669  -50.2691  -51.9865 C.3       4 UNK         0.0263 
     53 CB         29.6070  -51.3092  -51.5709 C.3       4 UNK        -0.1967 
     54 N          31.6608  -50.8844  -52.8571 N.am      4 UNK        -0.4237 
     55 C          32.6393  -51.7201  -52.4905 C.2       3 UNK         0.4908 
     56 O          32.8177  -52.1012  -51.3329 O.2       3 UNK        -0.5102 
     57 CA         33.5810  -52.2275  -53.6014 C.3       3 UNK         0.0241 
     58 CB         33.1572  -53.6341  -54.0563 C.3       3 UNK        -0.1971 
     59 N          33.6429  -51.3449  -54.7722 N.am      3 UNK        -0.4139 
     60 C          34.1809  -50.1176  -54.7719 C.2       2 UNK         0.5016 
     61 O          34.7552  -49.6290  -53.7956 O.2       2 UNK        -0.5319 
     62 CA         34.0412  -49.2987  -56.0655 C.3       2 UNK         0.0286 
     63 CB         32.6724  -49.4895  -56.7531 C.3       2 UNK        -0.1963 
     64 N          34.2440  -47.8880  -55.7472 N.am      2 UNK        -0.4790 
     65 C          34.6157  -46.9271  -56.5963 C.2       1 UNK         0.5024 
     66 O          34.8208  -47.1256  -57.7946 O.2       1 UNK        -0.4888 
     67 H67        35.8051  -45.0966  -51.6373 H         1 UNK         0.0892 
     68 H68        36.4673  -46.6937  -51.9970 H         1 UNK         0.0892 
     69 H69        37.1492  -45.2602  -52.7692 H         1 UNK         0.0892 
     70 H70        36.5135  -45.0927  -54.8805 H         1 UNK         0.3107 
     71 H71        35.4317  -44.9835  -56.7520 H         1 UNK         0.0773 
     72 H72        32.9380  -44.8232  -56.9255 H         1 UNK         0.0680 
     73 H73        32.7843  -45.1924  -55.2308 H         1 UNK         0.0680 
     74 H74        33.2331  -41.8296  -53.5569 H         1 UNK         0.0650 
     75 H75        33.5776  -43.5169  -53.2826 H         1 UNK         0.0650 
     76 H76        31.7298  -43.3662  -51.6164 H         1 UNK         0.1397 
     77 H77        27.7186  -43.6010  -53.1037 H         1 UNK         0.1363 
     78 H78        30.9388  -42.8566  -55.8113 H         1 UNK         0.1355 
     79 H79        28.6672  -43.7751  -56.5791 H         1 UNK         0.0707 
     80 H80        27.3373  -43.7484  -55.4352 H         1 UNK         0.0707 
     81 H81        25.5059  -42.0504  -56.3488 H         1 UNK         0.1034 
     82 H82        25.9223  -40.7309  -57.3846 H         1 UNK         0.1034 
     83 H83        25.2152  -42.5012  -58.7877 H         1 UNK         0.0482 
     84 H84        26.1391  -40.7297  -60.0962 H         1 UNK         0.3460 
     85 H85        27.6637  -41.0019  -60.8971 H         1 UNK         0.3460 
     86 H86        26.5956  -44.2945  -57.0332 H         1 UNK         0.2989 
     87 H87        25.2232  -46.5050  -57.2245 H         1 UNK         0.0559 
     88 H88        24.4282  -47.4715  -59.3591 H         1 UNK         0.0848 
     89 H89        25.5029  -48.5989  -58.5491 H         1 UNK         0.0848 
     90 H90        26.0804  -47.6657  -59.9269 H         1 UNK         0.0848 
     91 H91        27.2535  -47.0546  -56.5402 H         1 UNK         0.3144 
     92 H92        30.3640  -47.6845  -58.1830 H         1 UNK         0.0727 
     93 H93        29.5127  -46.1362  -55.6755 H         1 UNK         0.0790 
     94 H94        30.5264  -45.5191  -56.9697 H         1 UNK         0.0790 
     95 H95        31.0978  -46.8427  -55.9648 H         1 UNK         0.0790 
     96 H96        29.3083  -48.6561  -55.7257 H         1 UNK         0.3215 
     97 H97        27.6990  -51.5750  -57.0003 H         1 UNK         0.0863 
     98 H98        29.2119  -52.6265  -55.3048 H         1 UNK         0.0808 
     99 H99        30.3000  -51.2450  -55.4124 H         1 UNK         0.0808 
    100 H100       30.0498  -52.2763  -56.8078 H         1 UNK         0.0808 
    101 H101       28.1829  -50.2304  -54.4288 H         1 UNK         0.3118 
    102 H102       25.0585  -48.6221  -54.3500 H         1 UNK         0.0546 
    103 H103       25.7189  -51.1942  -52.8126 H         1 UNK         0.0828 
    104 H104       24.2655  -50.9151  -53.7608 H         1 UNK         0.0828 
    105 H105       24.5585  -49.9603  -52.3182 H         1 UNK         0.0828 
    106 H106       27.0261  -49.1488  -52.3256 H         1 UNK         0.3005 
    107 H107       29.2254  -46.4847  -53.1383 H         1 UNK         0.1257 
    108 H108       27.2746  -46.8601  -50.7996 H         1 UNK         0.0775 
    109 H109       27.3022  -45.4577  -51.8242 H         1 UNK         0.0775 
    110 H110       28.1411  -43.3945  -50.6862 H         1 UNK         0.0840 
    111 H111       29.7651  -43.2046  -50.0850 H         1 UNK         0.0840 
    112 H112       29.3256  -48.3210  -51.0179 H         1 UNK         0.2987 
    113 H113       31.1666  -49.8653  -51.1035 H         1 UNK         0.0785 
    114 H114       28.8415  -50.8642  -50.9342 H         1 UNK         0.0798 
    115 H115       30.0517  -52.1281  -51.0054 H         1 UNK         0.0798 
    116 H116       29.1040  -51.7402  -52.4376 H         1 UNK         0.0798 
    117 H117       31.6066  -50.5689  -53.8166 H         1 UNK         0.3079 
    118 H118       34.5840  -52.2923  -53.1738 H         1 UNK         0.0794 
    119 H119       33.8568  -54.0443  -54.7850 H         1 UNK         0.0786 
    120 H120       32.1635  -53.6316  -54.5065 H         1 UNK         0.0786 
    121 H121       33.1301  -54.3253  -53.2125 H         1 UNK         0.0786 
    122 H122       33.2147  -51.6868  -55.6201 H         1 UNK         0.3032 
    123 H123       34.8342  -49.6247  -56.7422 H         1 UNK         0.1094 
    124 H124       31.8556  -49.2615  -56.0694 H         1 UNK         0.0794 
    125 H125       32.5666  -48.8396  -57.6216 H         1 UNK         0.0794 
    126 H126       32.5342  -50.5098  -57.1111 H         1 UNK         0.0794 
    127 H127       34.1480  -47.6445  -54.7615 H         1 UNK         0.3016 
@<TRIPOS>BOND
     1    1    2 1    
     2    1   67 1    
     3    1   68 1    
     4    1   69 1    
     5    2    3 2    
     6    2    4 am   BACKBONE|DICT|INTERRES
     7    4    5 1    
     8    4   70 1    
     9    5    6 1    
    10    5   65 1    
    11    5   71 1    
    12    6    7 1    
    13    6   72 1    
    14    6   73 1    
    15    7    8 1    
    16    8    9 1    
    17    8   74 1    
    18    8   75 1    
    19    9   10 ar   
    20    9   14 ar   
    21   10   11 ar   
    22   10   76 1    
    23   11   12 ar   
    24   11   48 1    
    25   12   13 ar   
    26   12   77 1    
    27   13   14 ar   
    28   13   15 1    
    29   14   78 1    
    30   15   16 1    
    31   15   79 1    
    32   15   80 1    
    33   16   17 1    
    34   17   18 1    
    35   17   81 1    
    36   17   82 1    
    37   18   19 1    
    38   18   22 1    
    39   18   83 1    
    40   19   20 am   BACKBONE|DICT|INTERRES
    41   19   21 2    
    42   20   84 1    
    43   20   85 1    
    44   22   23 am   BACKBONE|DICT|INTERRES
    45   22   86 1    
    46   23   24 2    
    47   23   25 1    
    48   25   26 1    
    49   25   27 1    
    50   25   87 1    
    51   26   88 1    
    52   26   89 1    
    53   26   90 1    
    54   27   28 am   BACKBONE|DICT|INTERRES
    55   27   91 1    
    56   28   29 2    
    57   28   30 1    
    58   30   31 1    
    59   30   32 1    
    60   30   92 1    
    61   31   93 1    
    62   31   94 1    
    63   31   95 1    
    64   32   33 am   BACKBONE|DICT|INTERRES
    65   32   96 1    
    66   33   34 2    
    67   33   35 1    
    68   35   36 1    
    69   35   37 1    
    70   35   97 1    
    71   36   98 1    
    72   36   99 1    
    73   36  100 1    
    74   37   38 am   BACKBONE|DICT|INTERRES
    75   37  101 1    
    76   38   39 2    
    77   38   40 1    
    78   40   41 1    
    79   40   42 1    
    80   40  102 1    
    81   41  103 1    
    82   41  104 1    
    83   41  105 1    
    84   42   43 am   BACKBONE|DICT|INTERRES
    85   42  106 1    
    86   43   44 2    
    87   43   45 1    
    88   45   46 1    
    89   45   49 1    
    90   45  107 1    
    91   46   47 1    
    92   46  108 1    
    93   46  109 1    
    94   47   48 1    
    95   48  110 1    
    96   48  111 1    
    97   49   50 am   BACKBONE|DICT|INTERRES
    98   49  112 1    
    99   50   51 2    
   100   50   52 1    
   101   52   53 1    
   102   52   54 1    
   103   52  113 1    
   104   53  114 1    
   105   53  115 1    
   106   53  116 1    
   107   54   55 am   BACKBONE|DICT|INTERRES
   108   54  117 1    
   109   55   56 2    
   110   55   57 1    
   111   57   58 1    
   112   57   59 1    
   113   57  118 1    
   114   58  119 1    
   115   58  120 1    
   116   58  121 1    
   117   59   60 am   BACKBONE|DICT|INTERRES
   118   59  122 1    
   119   60   61 2    
   120   60   62 1    
   121   62   63 1    
   122   62   64 1    
   123   62  123 1    
   124   63  124 1    
   125   63  125 1    
   126   63  126 1    
   127   64   65 am   BACKBONE|DICT|INTERRES
   128   64  127 1    
   129   65   66 2    
@<TRIPOS>SUBSTRUCTURE
     1 UNK         1 GROUP             0       ****    0 ROOT    
