@<TRIPOS>MOLECULE
3R134
127   129    1
SMALL
USER_CHARGES


@<TRIPOS>ATOM
      1 CA         32.0000  -45.8274  -61.2076 C.3       0 UNK        -0.1968 
      2 C          31.7677  -46.3955  -59.8155 C.2       0 UNK         0.4852 
      3 O          30.9075  -47.2583  -59.6456 O.2       0 UNK        -0.5359 
      4 N          32.5204  -45.9096  -58.8219 N.am      1 UNK        -0.4300 
      5 CA         32.4602  -46.3629  -57.4321 C.3       1 UNK         0.0863 
      6 C6         32.8534  -45.2122  -56.4732 C.3       11 UNK        -0.0953 
      7 S7         32.3746  -45.5440  -54.7467 S.3       11 UNK        -0.2369 
      8 C8         31.9860  -43.8846  -54.1099 C.3       11 UNK         0.0226 
      9 C9         30.5288  -43.7778  -53.6869 C.ar      11 UNK        -0.0699 
     10 C10        30.0634  -44.5375  -52.6101 C.ar      11 UNK        -0.0804 
     11 C11        28.7386  -44.4273  -52.1699 C.ar      11 UNK        -0.0871 
     12 C12        27.8869  -43.5234  -52.8164 C.ar      11 UNK        -0.1008 
     13 C13        28.3378  -42.7570  -53.8977 C.ar      11 UNK        -0.0735 
     14 C14        29.6601  -42.8937  -54.3314 C.ar      11 UNK        -0.0945 
     15 C15        27.4153  -41.7514  -54.5754 C.3       11 UNK         0.0169 
     16 S16        25.9787  -42.5474  -55.3656 S.3       11 UNK        -0.2669 
     17 C17        25.5415  -41.3137  -56.6429 C.3       11 UNK        -0.0850 
     18 CA         25.6299  -41.8761  -58.0939 C.3       10 UNK         0.0855 
     19 C          25.1987  -40.8289  -59.1652 C.2       10 UNK         0.5543 
     20 N          25.7819  -40.8254  -60.3576 N.am      10 UNK        -0.7343 
     21 O          24.3001  -40.0255  -58.9259 O.2       10 UNK        -0.5027 
     22 N          26.8984  -42.5714  -58.3820 N.am      10 UNK        -0.4495 
     23 C          28.1299  -42.0495  -58.3434 C.2       10 UNK         0.4903 
     24 O          28.3699  -40.8658  -58.1013 O.2       10 UNK        -0.4860 
     25 CA         29.2857  -43.0409  -58.5853 C.3       9 UNK         0.0227 
     26 CB         30.6704  -42.3681  -58.5360 C.3       9 UNK        -0.1964 
     27 N          29.2546  -44.1409  -57.6170 N.am      9 UNK        -0.4231 
     28 C          28.4715  -45.2227  -57.7006 C.2       9 UNK         0.5014 
     29 O          27.6745  -45.4291  -58.6199 O.2       9 UNK        -0.5270 
     30 CA         28.5643  -46.2198  -56.5465 C.3       8 UNK         0.0284 
     31 CB         27.3930  -46.0595  -55.5656 C.3       8 UNK        -0.1977 
     32 N          28.5420  -47.5725  -57.0904 N.am      8 UNK        -0.4342 
     33 C          29.2840  -48.5709  -56.6135 C.2       8 UNK         0.5039 
     34 O          30.1189  -48.4295  -55.7126 O.2       8 UNK        -0.5547 
     35 CA         29.0566  -49.9676  -57.2055 C.3       7 UNK         0.0281 
     36 CB         29.9526  -50.2203  -58.4274 C.3       7 UNK        -0.1963 
     37 N          29.4213  -50.8722  -56.1286 N.am      7 UNK        -0.4444 
     38 C          28.6787  -51.8650  -55.6393 C.2       7 UNK         0.5104 
     39 O          27.7511  -52.4058  -56.2419 O.2       7 UNK        -0.5100 
     40 CA         29.0003  -52.2680  -54.1879 C.3       6 UNK         0.0396 
     41 CB         30.0429  -53.3957  -54.1599 C.3       6 UNK        -0.1801 
     42 N          29.4746  -51.1377  -53.3718 N.am      6 UNK        -0.4747 
     43 C          28.7530  -50.0358  -53.0856 C.2       6 UNK         0.5012 
     44 O          27.5847  -49.8890  -53.4504 O.2       6 UNK        -0.5003 
     45 CA         29.4399  -48.9166  -52.2631 C.3       5 UNK         0.0782 
     46 C46        28.4073  -47.9991  -51.5416 C.3       11 UNK        -0.0868 
     47 S47        29.1616  -46.7012  -50.5002 S.3       11 UNK        -0.2515 
     48 C48        28.2106  -45.2065  -50.9626 C.3       11 UNK         0.0199 
     49 N          30.4884  -49.4531  -51.3854 N.am      5 UNK        -0.4607 
     50 C          30.3224  -50.2901  -50.3499 C.2       4 UNK         0.5031 
     51 O          29.2208  -50.6641  -49.9448 O.2       4 UNK        -0.5119 
     52 CA         31.5998  -50.8072  -49.6510 C.3       4 UNK         0.0263 
     53 CB         31.4370  -52.2549  -49.1391 C.3       4 UNK        -0.1967 
     54 N          32.8265  -50.6804  -50.4542 N.am      4 UNK        -0.4237 
     55 C          33.0751  -51.2389  -51.6482 C.2       3 UNK         0.4908 
     56 O          32.2907  -51.9769  -52.2485 O.2       3 UNK        -0.5102 
     57 CA         34.4330  -50.8910  -52.2825 C.3       3 UNK         0.0241 
     58 CB         35.4490  -52.0131  -52.0141 C.3       3 UNK        -0.1971 
     59 N          34.3535  -50.6487  -53.7272 N.am      3 UNK        -0.4139 
     60 C          33.5504  -49.7592  -54.3286 C.2       2 UNK         0.5016 
     61 O          32.7446  -49.0422  -53.7275 O.2       2 UNK        -0.5319 
     62 CA         33.6839  -49.6606  -55.8566 C.3       2 UNK         0.0286 
     63 CB         33.1708  -50.9354  -56.5492 C.3       2 UNK        -0.1963 
     64 N          32.9273  -48.5058  -56.3364 N.am      2 UNK        -0.4790 
     65 C          33.3488  -47.6102  -57.2350 C.2       1 UNK         0.5024 
     66 O          34.4054  -47.7151  -57.8638 O.2       1 UNK        -0.4888 
     67 H67        31.0836  -45.3723  -61.5824 H         1 UNK         0.0892 
     68 H68        32.7825  -45.0689  -61.2146 H         1 UNK         0.0892 
     69 H69        32.2915  -46.6227  -61.8930 H         1 UNK         0.0892 
     70 H70        33.2550  -45.2496  -59.0332 H         1 UNK         0.3107 
     71 H71        31.4294  -46.6434  -57.2183 H         1 UNK         0.0773 
     72 H72        32.3575  -44.2947  -56.7910 H         1 UNK         0.0680 
     73 H73        33.9251  -45.0079  -56.5137 H         1 UNK         0.0680 
     74 H74        32.2397  -43.1174  -54.8425 H         1 UNK         0.0650 
     75 H75        32.6192  -43.6912  -53.2430 H         1 UNK         0.0650 
     76 H76        30.7532  -45.2040  -52.1123 H         1 UNK         0.1397 
     77 H77        26.8668  -43.4079  -52.4755 H         1 UNK         0.1363 
     78 H78        30.0211  -42.2881  -55.1512 H         1 UNK         0.1355 
     79 H79        27.9724  -41.1830  -55.3214 H         1 UNK         0.0707 
     80 H80        27.0627  -41.0282  -53.8388 H         1 UNK         0.0707 
     81 H81        24.5243  -40.9776  -56.4339 H         1 UNK         0.1034 
     82 H82        26.1680  -40.4262  -56.5421 H         1 UNK         0.1034 
     83 H83        24.8727  -42.6573  -58.1681 H         1 UNK         0.0482 
     84 H84        26.5119  -41.4866  -60.5681 H         1 UNK         0.3460 
     85 H85        25.4914  -40.1527  -61.0497 H         1 UNK         0.3460 
     86 H86        26.8224  -43.5631  -58.5825 H         1 UNK         0.2989 
     87 H87        29.1558  -43.4497  -59.5897 H         1 UNK         0.0559 
     88 H88        31.4631  -43.0733  -58.7837 H         1 UNK         0.0848 
     89 H89        30.8854  -41.9487  -57.5526 H         1 UNK         0.0848 
     90 H90        30.7333  -41.5524  -59.2576 H         1 UNK         0.0848 
     91 H91        29.8291  -44.0309  -56.7948 H         1 UNK         0.3144 
     92 H92        29.4939  -46.0356  -56.0036 H         1 UNK         0.0727 
     93 H93        26.4290  -46.2006  -56.0558 H         1 UNK         0.0790 
     94 H94        27.3931  -45.0657  -55.1253 H         1 UNK         0.0790 
     95 H95        27.4631  -46.7736  -54.7448 H         1 UNK         0.0790 
     96 H96        27.9379  -47.7107  -57.8906 H         1 UNK         0.3215 
     97 H97        28.0042  -50.0897  -57.4716 H         1 UNK         0.0863 
     98 H98        29.9332  -51.2681  -58.7268 H         1 UNK         0.0808 
     99 H99        30.9892  -49.9425  -58.2356 H         1 UNK         0.0808 
    100 H100       29.6146  -49.6316  -59.2806 H         1 UNK         0.0808 
    101 H101       30.0914  -50.4499  -55.4951 H         1 UNK         0.3118 
    102 H102       28.0794  -52.6406  -53.7353 H         1 UNK         0.0546 
    103 H103       30.9992  -53.0721  -54.5731 H         1 UNK         0.0828 
    104 H104       29.7073  -54.2540  -54.7434 H         1 UNK         0.0828 
    105 H105       30.2211  -53.7451  -53.1427 H         1 UNK         0.0828 
    106 H106       30.4188  -51.2089  -53.0058 H         1 UNK         0.3005 
    107 H107       29.9612  -48.2993  -52.9982 H         1 UNK         0.1257 
    108 H108       27.7468  -48.5915  -50.9063 H         1 UNK         0.0775 
    109 H109       27.7633  -47.5200  -52.2812 H         1 UNK         0.0775 
    110 H110       27.1672  -45.4834  -51.1215 H         1 UNK         0.0840 
    111 H111       28.2160  -44.5313  -50.1061 H         1 UNK         0.0840 
    112 H112       31.4323  -49.2214  -51.6663 H         1 UNK         0.2987 
    113 H113       31.7406  -50.1645  -48.7807 H         1 UNK         0.0785 
    114 H114       30.6209  -52.3284  -48.4193 H         1 UNK         0.0798 
    115 H115       32.3398  -52.6029  -48.6373 H         1 UNK         0.0798 
    116 H116       31.2158  -52.9483  -49.9513 H         1 UNK         0.0798 
    117 H117       33.5363  -50.0795  -50.0569 H         1 UNK         0.3079 
    118 H118       34.8049  -49.9710  -51.8268 H         1 UNK         0.0794 
    119 H119       35.5521  -52.2009  -50.9444 H         1 UNK         0.0786 
    120 H120       36.4384  -51.7547  -52.3921 H         1 UNK         0.0786 
    121 H121       35.1440  -52.9509  -52.4808 H         1 UNK         0.0786 
    122 H122       34.9594  -51.2136  -54.3037 H         1 UNK         0.3032 
    123 H123       34.7441  -49.5277  -56.0847 H         1 UNK         0.1094 
    124 H124       33.2348  -50.8493  -57.6340 H         1 UNK         0.0794 
    125 H125       33.7594  -51.8075  -56.2629 H         1 UNK         0.0794 
    126 H126       32.1345  -51.1459  -56.2890 H         1 UNK         0.0794 
    127 H127       32.0601  -48.3276  -55.8295 H         1 UNK         0.3016 
@<TRIPOS>BOND
     1    1    2 1    
     2    1   67 1    
     3    1   68 1    
     4    1   69 1    
     5    2    3 2    
     6    2    4 am   BACKBONE|DICT|INTERRES
     7    4    5 1    
     8    4   70 1    
     9    5    6 1    
    10    5   65 1    
    11    5   71 1    
    12    6    7 1    
    13    6   72 1    
    14    6   73 1    
    15    7    8 1    
    16    8    9 1    
    17    8   74 1    
    18    8   75 1    
    19    9   10 ar   
    20    9   14 ar   
    21   10   11 ar   
    22   10   76 1    
    23   11   12 ar   
    24   11   48 1    
    25   12   13 ar   
    26   12   77 1    
    27   13   14 ar   
    28   13   15 1    
    29   14   78 1    
    30   15   16 1    
    31   15   79 1    
    32   15   80 1    
    33   16   17 1    
    34   17   18 1    
    35   17   81 1    
    36   17   82 1    
    37   18   19 1    
    38   18   22 1    
    39   18   83 1    
    40   19   20 am   BACKBONE|DICT|INTERRES
    41   19   21 2    
    42   20   84 1    
    43   20   85 1    
    44   22   23 am   BACKBONE|DICT|INTERRES
    45   22   86 1    
    46   23   24 2    
    47   23   25 1    
    48   25   26 1    
    49   25   27 1    
    50   25   87 1    
    51   26   88 1    
    52   26   89 1    
    53   26   90 1    
    54   27   28 am   BACKBONE|DICT|INTERRES
    55   27   91 1    
    56   28   29 2    
    57   28   30 1    
    58   30   31 1    
    59   30   32 1    
    60   30   92 1    
    61   31   93 1    
    62   31   94 1    
    63   31   95 1    
    64   32   33 am   BACKBONE|DICT|INTERRES
    65   32   96 1    
    66   33   34 2    
    67   33   35 1    
    68   35   36 1    
    69   35   37 1    
    70   35   97 1    
    71   36   98 1    
    72   36   99 1    
    73   36  100 1    
    74   37   38 am   BACKBONE|DICT|INTERRES
    75   37  101 1    
    76   38   39 2    
    77   38   40 1    
    78   40   41 1    
    79   40   42 1    
    80   40  102 1    
    81   41  103 1    
    82   41  104 1    
    83   41  105 1    
    84   42   43 am   BACKBONE|DICT|INTERRES
    85   42  106 1    
    86   43   44 2    
    87   43   45 1    
    88   45   46 1    
    89   45   49 1    
    90   45  107 1    
    91   46   47 1    
    92   46  108 1    
    93   46  109 1    
    94   47   48 1    
    95   48  110 1    
    96   48  111 1    
    97   49   50 am   BACKBONE|DICT|INTERRES
    98   49  112 1    
    99   50   51 2    
   100   50   52 1    
   101   52   53 1    
   102   52   54 1    
   103   52  113 1    
   104   53  114 1    
   105   53  115 1    
   106   53  116 1    
   107   54   55 am   BACKBONE|DICT|INTERRES
   108   54  117 1    
   109   55   56 2    
   110   55   57 1    
   111   57   58 1    
   112   57   59 1    
   113   57  118 1    
   114   58  119 1    
   115   58  120 1    
   116   58  121 1    
   117   59   60 am   BACKBONE|DICT|INTERRES
   118   59  122 1    
   119   60   61 2    
   120   60   62 1    
   121   62   63 1    
   122   62   64 1    
   123   62  123 1    
   124   63  124 1    
   125   63  125 1    
   126   63  126 1    
   127   64   65 am   BACKBONE|DICT|INTERRES
   128   64  127 1    
   129   65   66 2    
@<TRIPOS>SUBSTRUCTURE
     1 UNK         1 GROUP             0       ****    0 ROOT    
