@<TRIPOS>MOLECULE
3R134
127   129    1
SMALL
USER_CHARGES


@<TRIPOS>ATOM
      1 CA         37.3203  -46.4173  -48.5708 C.3       0 UNK        -0.1968 
      2 C          36.1154  -46.2845  -49.4902 C.2       0 UNK         0.4852 
      3 O          35.2360  -47.1472  -49.4717 O.2       0 UNK        -0.5359 
      4 N          36.0777  -45.2227  -50.3081 N.am      1 UNK        -0.4300 
      5 CA         35.0189  -44.8445  -51.2590 C.3       1 UNK         0.0863 
      6 C6         33.6347  -44.6403  -50.5808 C.3       11 UNK        -0.0953 
      7 S7         32.5802  -43.4583  -51.4859 S.3       11 UNK        -0.2369 
      8 C8         31.4124  -44.5792  -52.3169 C.3       11 UNK         0.0226 
      9 C9         30.9844  -44.0156  -53.6617 C.ar      11 UNK        -0.0699 
     10 C10        31.7108  -44.3373  -54.8096 C.ar      11 UNK        -0.0804 
     11 C11        31.3683  -43.7939  -56.0500 C.ar      11 UNK        -0.0871 
     12 C12        30.2700  -42.9312  -56.1390 C.ar      11 UNK        -0.1008 
     13 C13        29.5378  -42.5936  -54.9939 C.ar      11 UNK        -0.0735 
     14 C14        29.8945  -43.1471  -53.7596 C.ar      11 UNK        -0.0945 
     15 C15        28.4161  -41.5660  -55.0649 C.3       11 UNK         0.0169 
     16 S16        26.7683  -42.3034  -54.8354 S.3       11 UNK        -0.2669 
     17 C17        26.4547  -43.0447  -56.4737 C.3       11 UNK        -0.0850 
     18 CA         26.0578  -44.5485  -56.3878 C.3       10 UNK         0.0855 
     19 C          24.5434  -44.7883  -56.0907 C.2       10 UNK         0.5543 
     20 N          23.9559  -44.0208  -55.1828 N.am      10 UNK        -0.7343 
     21 O          23.8955  -45.6721  -56.6490 O.2       10 UNK        -0.5027 
     22 N          26.5660  -45.3100  -57.5371 N.am      10 UNK        -0.4495 
     23 C          26.2097  -45.1333  -58.8159 C.2       10 UNK         0.4903 
     24 O          25.4187  -44.2710  -59.2005 O.2       10 UNK        -0.4860 
     25 CA         26.8564  -46.0595  -59.8524 C.3       9 UNK         0.0227 
     26 CB         28.2177  -45.4937  -60.2891 C.3       9 UNK        -0.1964 
     27 N          27.0431  -47.4178  -59.3347 N.am      9 UNK        -0.4231 
     28 C          26.3834  -48.4952  -59.7768 C.2       9 UNK         0.5014 
     29 O          25.4899  -48.4565  -60.6248 O.2       9 UNK        -0.5270 
     30 CA         26.8202  -49.8605  -59.2247 C.3       8 UNK         0.0284 
     31 CB         28.0887  -50.3429  -59.9479 C.3       8 UNK        -0.1977 
     32 N          27.0365  -49.8857  -57.7754 N.am      8 UNK        -0.4342 
     33 C          26.0443  -49.9140  -56.8735 C.2       8 UNK         0.5039 
     34 O          24.8525  -49.8047  -57.1646 O.2       8 UNK        -0.5547 
     35 CA         26.4348  -50.1599  -55.4061 C.3       7 UNK         0.0281 
     36 CB         26.8767  -51.6178  -55.1943 C.3       7 UNK        -0.1963 
     37 N          27.4899  -49.2603  -54.9482 N.am      7 UNK        -0.4444 
     38 C          27.3037  -47.9754  -54.6196 C.2       7 UNK         0.5104 
     39 O          26.2028  -47.4285  -54.5847 O.2       7 UNK        -0.5100 
     40 CA         28.5661  -47.1559  -54.2864 C.3       6 UNK         0.0396 
     41 CB         28.9199  -47.3143  -52.7999 C.3       6 UNK        -0.1801 
     42 N          29.7223  -47.5094  -55.1191 N.am      6 UNK        -0.4747 
     43 C          29.7384  -47.4432  -56.4602 C.2       6 UNK         0.5012 
     44 O          28.7821  -47.0662  -57.1391 O.2       6 UNK        -0.5003 
     45 CA         30.9989  -47.9663  -57.1744 C.3       5 UNK         0.0782 
     46 C46        32.1231  -46.9082  -57.2622 C.3       11 UNK        -0.0868 
     47 S47        31.6619  -45.4633  -58.2805 S.3       11 UNK        -0.2515 
     48 C48        32.2437  -44.0666  -57.2681 C.3       11 UNK         0.0199 
     49 N          31.4683  -49.2086  -56.5567 N.am      5 UNK        -0.4607 
     50 C          30.8161  -50.3776  -56.6294 C.2       4 UNK         0.5031 
     51 O          29.7744  -50.5394  -57.2626 O.2       4 UNK        -0.5119 
     52 CA         31.3885  -51.5467  -55.8118 C.3       4 UNK         0.0263 
     53 CB         32.5680  -52.2006  -56.5487 C.3       4 UNK        -0.1967 
     54 N          31.8080  -51.1348  -54.4707 N.am      4 UNK        -0.4237 
     55 C          30.9780  -50.6508  -53.5348 C.2       3 UNK         0.4908 
     56 O          29.7574  -50.5886  -53.6748 O.2       3 UNK        -0.5102 
     57 CA         31.6116  -50.1086  -52.2414 C.3       3 UNK         0.0241 
     58 CB         31.6100  -51.1903  -51.1500 C.3       3 UNK        -0.1971 
     59 N          32.9721  -49.5861  -52.4103 N.am      3 UNK        -0.4139 
     60 C          33.3187  -48.5681  -53.2111 C.2       2 UNK         0.5016 
     61 O          32.5214  -47.9477  -53.9191 O.2       2 UNK        -0.5319 
     62 CA         34.8085  -48.2012  -53.2120 C.3       2 UNK         0.0286 
     63 CB         35.3640  -47.9778  -54.6355 C.3       2 UNK        -0.1963 
     64 N          35.0418  -47.0803  -52.2946 N.am      2 UNK        -0.4790 
     65 C          34.9251  -45.7613  -52.5020 C.2       1 UNK         0.5024 
     66 O          34.7746  -45.2426  -53.6069 O.2       1 UNK        -0.4888 
     67 H67        37.8517  -47.3453  -48.7805 H         1 UNK         0.0892 
     68 H68        36.9964  -46.4375  -47.5305 H         1 UNK         0.0892 
     69 H69        38.0202  -45.5906  -48.6916 H         1 UNK         0.0892 
     70 H70        36.8603  -44.5827  -50.2890 H         1 UNK         0.3107 
     71 H71        35.3456  -43.8720  -51.6323 H         1 UNK         0.0773 
     72 H72        33.7728  -44.2233  -49.5820 H         1 UNK         0.0680 
     73 H73        33.1138  -45.5881  -50.4320 H         1 UNK         0.0680 
     74 H74        31.8741  -45.5565  -52.4657 H         1 UNK         0.0650 
     75 H75        30.5458  -44.7366  -51.6734 H         1 UNK         0.0650 
     76 H76        32.5671  -44.9897  -54.7255 H         1 UNK         0.1397 
     77 H77        30.0130  -42.4905  -57.0926 H         1 UNK         0.1363 
     78 H78        29.3413  -42.8769  -52.8705 H         1 UNK         0.1355 
     79 H79        28.4443  -41.0174  -56.0078 H         1 UNK         0.0707 
     80 H80        28.5724  -40.8221  -54.2822 H         1 UNK         0.0707 
     81 H81        27.3599  -42.9355  -57.0727 H         1 UNK         0.1034 
     82 H82        25.6922  -42.4644  -56.9967 H         1 UNK         0.1034 
     83 H83        26.5856  -44.9830  -55.5406 H         1 UNK         0.0482 
     84 H84        24.4840  -43.3007  -54.7118 H         1 UNK         0.3460 
     85 H85        22.9823  -44.1635  -54.9652 H         1 UNK         0.3460 
     86 H86        27.2527  -46.0259  -57.3176 H         1 UNK         0.2989 
     87 H87        26.2066  -46.0708  -60.7299 H         1 UNK         0.0559 
     88 H88        28.6791  -46.1154  -61.0563 H         1 UNK         0.0848 
     89 H89        28.9123  -45.4246  -59.4516 H         1 UNK         0.0848 
     90 H90        28.1092  -44.4912  -60.7049 H         1 UNK         0.0848 
     91 H91        27.7298  -47.5263  -58.5919 H         1 UNK         0.3144 
     92 H92        26.0244  -50.5729  -59.4540 H         1 UNK         0.0727 
     93 H93        28.3663  -51.3490  -59.6329 H         1 UNK         0.0790 
     94 H94        28.9384  -49.6864  -59.7566 H         1 UNK         0.0790 
     95 H95        27.9361  -50.3724  -61.0277 H         1 UNK         0.0790 
     96 H96        27.9964  -50.0217  -57.4630 H         1 UNK         0.3215 
     97 H97        25.5471  -49.9884  -54.7930 H         1 UNK         0.0863 
     98 H98        27.0708  -51.8217  -54.1410 H         1 UNK         0.0808 
     99 H99        27.7853  -51.8532  -55.7496 H         1 UNK         0.0808 
    100 H100       26.1025  -52.3126  -55.5225 H         1 UNK         0.0808 
    101 H101       28.4219  -49.6511  -54.8505 H         1 UNK         0.3118 
    102 H102       28.3555  -46.1015  -54.4741 H         1 UNK         0.0546 
    103 H103       28.2002  -46.7831  -52.1763 H         1 UNK         0.0828 
    104 H104       29.9070  -46.9178  -52.5734 H         1 UNK         0.0828 
    105 H105       28.9026  -48.3581  -52.4876 H         1 UNK         0.0828 
    106 H106       30.5677  -47.8071  -54.6424 H         1 UNK         0.3005 
    107 H107       30.7005  -48.2109  -58.1969 H         1 UNK         0.1257 
    108 H108       33.0094  -47.3521  -57.7179 H         1 UNK         0.0775 
    109 H109       32.4318  -46.5956  -56.2662 H         1 UNK         0.0775 
    110 H110       33.2753  -44.2484  -56.9615 H         1 UNK         0.0840 
    111 H111       32.2745  -43.1754  -57.8966 H         1 UNK         0.0840 
    112 H112       32.2695  -49.1302  -55.9462 H         1 UNK         0.2987 
    113 H113       30.5975  -52.2918  -55.7015 H         1 UNK         0.0785 
    114 H114       33.4064  -51.5129  -56.6673 H         1 UNK         0.0798 
    115 H115       32.2702  -52.5263  -57.5465 H         1 UNK         0.0798 
    116 H116       32.9283  -53.0815  -56.0171 H         1 UNK         0.0798 
    117 H117       32.7955  -51.1692  -54.2658 H         1 UNK         0.3079 
    118 H118       30.9909  -49.2803  -51.8971 H         1 UNK         0.0794 
    119 H119       32.2435  -52.0370  -51.4176 H         1 UNK         0.0786 
    120 H120       30.6028  -51.5763  -50.9851 H         1 UNK         0.0786 
    121 H121       31.9616  -50.7942  -50.1970 H         1 UNK         0.0786 
    122 H122       33.6885  -50.0271  -51.8510 H         1 UNK         0.3032 
    123 H123       35.3648  -49.0418  -52.7934 H         1 UNK         0.1094 
    124 H124       34.7904  -47.2377  -55.1941 H         1 UNK         0.0794 
    125 H125       36.4031  -47.6500  -54.6107 H         1 UNK         0.0794 
    126 H126       35.3288  -48.9034  -55.2109 H         1 UNK         0.0794 
    127 H127       35.1442  -47.3441  -51.3156 H         1 UNK         0.3016 
@<TRIPOS>BOND
     1    1    2 1    
     2    1   67 1    
     3    1   68 1    
     4    1   69 1    
     5    2    3 2    
     6    2    4 am   BACKBONE|DICT|INTERRES
     7    4    5 1    
     8    4   70 1    
     9    5    6 1    
    10    5   65 1    
    11    5   71 1    
    12    6    7 1    
    13    6   72 1    
    14    6   73 1    
    15    7    8 1    
    16    8    9 1    
    17    8   74 1    
    18    8   75 1    
    19    9   10 ar   
    20    9   14 ar   
    21   10   11 ar   
    22   10   76 1    
    23   11   12 ar   
    24   11   48 1    
    25   12   13 ar   
    26   12   77 1    
    27   13   14 ar   
    28   13   15 1    
    29   14   78 1    
    30   15   16 1    
    31   15   79 1    
    32   15   80 1    
    33   16   17 1    
    34   17   18 1    
    35   17   81 1    
    36   17   82 1    
    37   18   19 1    
    38   18   22 1    
    39   18   83 1    
    40   19   20 am   BACKBONE|DICT|INTERRES
    41   19   21 2    
    42   20   84 1    
    43   20   85 1    
    44   22   23 am   BACKBONE|DICT|INTERRES
    45   22   86 1    
    46   23   24 2    
    47   23   25 1    
    48   25   26 1    
    49   25   27 1    
    50   25   87 1    
    51   26   88 1    
    52   26   89 1    
    53   26   90 1    
    54   27   28 am   BACKBONE|DICT|INTERRES
    55   27   91 1    
    56   28   29 2    
    57   28   30 1    
    58   30   31 1    
    59   30   32 1    
    60   30   92 1    
    61   31   93 1    
    62   31   94 1    
    63   31   95 1    
    64   32   33 am   BACKBONE|DICT|INTERRES
    65   32   96 1    
    66   33   34 2    
    67   33   35 1    
    68   35   36 1    
    69   35   37 1    
    70   35   97 1    
    71   36   98 1    
    72   36   99 1    
    73   36  100 1    
    74   37   38 am   BACKBONE|DICT|INTERRES
    75   37  101 1    
    76   38   39 2    
    77   38   40 1    
    78   40   41 1    
    79   40   42 1    
    80   40  102 1    
    81   41  103 1    
    82   41  104 1    
    83   41  105 1    
    84   42   43 am   BACKBONE|DICT|INTERRES
    85   42  106 1    
    86   43   44 2    
    87   43   45 1    
    88   45   46 1    
    89   45   49 1    
    90   45  107 1    
    91   46   47 1    
    92   46  108 1    
    93   46  109 1    
    94   47   48 1    
    95   48  110 1    
    96   48  111 1    
    97   49   50 am   BACKBONE|DICT|INTERRES
    98   49  112 1    
    99   50   51 2    
   100   50   52 1    
   101   52   53 1    
   102   52   54 1    
   103   52  113 1    
   104   53  114 1    
   105   53  115 1    
   106   53  116 1    
   107   54   55 am   BACKBONE|DICT|INTERRES
   108   54  117 1    
   109   55   56 2    
   110   55   57 1    
   111   57   58 1    
   112   57   59 1    
   113   57  118 1    
   114   58  119 1    
   115   58  120 1    
   116   58  121 1    
   117   59   60 am   BACKBONE|DICT|INTERRES
   118   59  122 1    
   119   60   61 2    
   120   60   62 1    
   121   62   63 1    
   122   62   64 1    
   123   62  123 1    
   124   63  124 1    
   125   63  125 1    
   126   63  126 1    
   127   64   65 am   BACKBONE|DICT|INTERRES
   128   64  127 1    
   129   65   66 2    
@<TRIPOS>SUBSTRUCTURE
     1 UNK         1 GROUP             0       ****    0 ROOT    
