@<TRIPOS>MOLECULE
3R134
127   129    1
SMALL
USER_CHARGES


@<TRIPOS>ATOM
      1 CA         40.2525  -46.7629  -52.4120 C.3       0 UNK        -0.1968 
      2 C          38.9666  -47.0358  -53.1787 C.2       0 UNK         0.4852 
      3 O          38.9243  -47.9654  -53.9858 O.2       0 UNK        -0.5359 
      4 N          37.9239  -46.2288  -52.9364 N.am      1 UNK        -0.4300 
      5 CA         36.5979  -46.3554  -53.5515 C.3       1 UNK         0.0863 
      6 C6         35.7438  -45.0873  -53.2857 C.3       11 UNK        -0.0953 
      7 S7         34.1365  -45.0950  -54.1451 S.3       11 UNK        -0.2369 
      8 C8         33.3370  -43.6437  -53.4035 C.3       11 UNK         0.0226 
      9 C9         31.8854  -43.5344  -53.8445 C.ar      11 UNK        -0.0699 
     10 C10        30.8482  -43.7306  -52.9256 C.ar      11 UNK        -0.0804 
     11 C11        29.5137  -43.6059  -53.3240 C.ar      11 UNK        -0.0871 
     12 C12        29.2251  -43.2702  -54.6490 C.ar      11 UNK        -0.1008 
     13 C13        30.2484  -43.1056  -55.5830 C.ar      11 UNK        -0.0735 
     14 C14        31.5788  -43.2258  -55.1744 C.ar      11 UNK        -0.0945 
     15 C15        29.8957  -42.7965  -57.0276 C.3       11 UNK         0.0169 
     16 S16        29.2914  -44.2876  -57.8822 S.3       11 UNK        -0.2669 
     17 C17        28.1996  -43.5318  -59.1341 C.3       11 UNK        -0.0850 
     18 CA         26.7107  -43.5580  -58.6958 C.3       10 UNK         0.0855 
     19 C          25.8406  -42.6416  -59.6043 C.2       10 UNK         0.5543 
     20 N          24.8550  -43.1591  -60.3281 N.am      10 UNK        -0.7343 
     21 O          26.0601  -41.4336  -59.6446 O.2       10 UNK        -0.5027 
     22 N          26.2124  -44.9376  -58.5883 N.am      10 UNK        -0.4495 
     23 C          25.2269  -45.3578  -57.7896 C.2       10 UNK         0.4903 
     24 O          24.6488  -44.6304  -56.9826 O.2       10 UNK        -0.4860 
     25 CA         24.8171  -46.8437  -57.8786 C.3       9 UNK         0.0227 
     26 CB         23.5737  -47.0162  -58.7730 C.3       9 UNK        -0.1964 
     27 N          25.8924  -47.7763  -58.2661 N.am      9 UNK        -0.4231 
     28 C          26.5446  -47.8638  -59.4364 C.2       9 UNK         0.5014 
     29 O          26.3066  -47.1368  -60.4016 O.2       9 UNK        -0.5270 
     30 CA         27.6974  -48.8739  -59.5488 C.3       8 UNK         0.0284 
     31 CB         29.0291  -48.1281  -59.7523 C.3       8 UNK        -0.1977 
     32 N          27.8309  -49.7434  -58.3779 N.am      8 UNK        -0.4342 
     33 C          27.2839  -50.9590  -58.2579 C.2       8 UNK         0.5039 
     34 O          26.5088  -51.4422  -59.0839 O.2       8 UNK        -0.5547 
     35 CA         27.6777  -51.7869  -57.0261 C.3       7 UNK         0.0281 
     36 CB         29.0884  -52.3750  -57.2014 C.3       7 UNK        -0.1963 
     37 N          27.6317  -51.0041  -55.7878 N.am      7 UNK        -0.4444 
     38 C          26.9299  -51.3478  -54.6972 C.2       7 UNK         0.5104 
     39 O          26.2233  -52.3546  -54.6282 O.2       7 UNK        -0.5100 
     40 CA         27.0299  -50.4355  -53.4571 C.3       6 UNK         0.0396 
     41 CB         27.9593  -51.0642  -52.4071 C.3       6 UNK        -0.1801 
     42 N          27.4868  -49.0746  -53.7496 N.am      6 UNK        -0.4747 
     43 C          26.7811  -48.1755  -54.4523 C.2       6 UNK         0.5012 
     44 O          25.6493  -48.3969  -54.8818 O.2       6 UNK        -0.5003 
     45 CA         27.4457  -46.8200  -54.7815 C.3       5 UNK         0.0782 
     46 C46        26.9084  -45.7057  -53.8427 C.3       11 UNK        -0.0868 
     47 S47        27.8173  -45.5412  -52.2606 S.3       11 UNK        -0.2515 
     48 C48        28.3857  -43.8094  -52.3214 C.3       11 UNK         0.0199 
     49 N          28.9130  -46.8611  -54.8390 N.am      5 UNK        -0.4607 
     50 C          29.6550  -47.7122  -55.5608 C.2       4 UNK         0.5031 
     51 O          29.1797  -48.5237  -56.3546 O.2       4 UNK        -0.5119 
     52 CA         31.1706  -47.7343  -55.3007 C.3       4 UNK         0.0263 
     53 CB         31.8991  -46.8824  -56.3500 C.3       4 UNK        -0.1967 
     54 N          31.5749  -47.3228  -53.9484 N.am      4 UNK        -0.4237 
     55 C          31.1277  -47.8641  -52.8038 C.2       3 UNK         0.4908 
     56 O          30.2819  -48.7592  -52.7557 O.2       3 UNK        -0.5102 
     57 CA         31.7246  -47.2970  -51.5033 C.3       3 UNK         0.0241 
     58 CB         30.8902  -47.6616  -50.2570 C.3       3 UNK        -0.1971 
     59 N          33.1310  -47.6758  -51.3218 N.am      3 UNK        -0.4139 
     60 C          33.6545  -48.9111  -51.2397 C.2       2 UNK         0.5016 
     61 O          32.9936  -49.9503  -51.2693 O.2       2 UNK        -0.5319 
     62 CA         35.1904  -48.9869  -51.0819 C.3       2 UNK         0.0286 
     63 CB         35.7701  -50.3630  -51.4762 C.3       2 UNK        -0.1963 
     64 N          35.8997  -47.9020  -51.7781 N.am      2 UNK        -0.4790 
     65 C          35.8738  -47.6414  -53.0962 C.2       1 UNK         0.5024 
     66 O          35.2987  -48.3429  -53.9294 O.2       1 UNK        -0.4888 
     67 H67        41.0664  -46.5559  -53.1063 H         1 UNK         0.0892 
     68 H68        40.1553  -45.9100  -51.7404 H         1 UNK         0.0892 
     69 H69        40.5256  -47.6336  -51.8164 H         1 UNK         0.0892 
     70 H70        38.0320  -45.4741  -52.2735 H         1 UNK         0.3107 
     71 H71        36.7485  -46.4357  -54.6306 H         1 UNK         0.0773 
     72 H72        35.5710  -44.9575  -52.2157 H         1 UNK         0.0680 
     73 H73        36.2877  -44.2006  -53.6156 H         1 UNK         0.0680 
     74 H74        33.4048  -43.7089  -52.3165 H         1 UNK         0.0650 
     75 H75        33.8777  -42.7430  -53.6976 H         1 UNK         0.0650 
     76 H76        31.0767  -43.9652  -51.8952 H         1 UNK         0.1397 
     77 H77        28.2018  -43.1426  -54.9704 H         1 UNK         0.1363 
     78 H78        32.3778  -43.0888  -55.8903 H         1 UNK         0.1355 
     79 H79        29.1293  -42.0199  -57.0433 H         1 UNK         0.0707 
     80 H80        30.7564  -42.3954  -57.5648 H         1 UNK         0.0707 
     81 H81        28.5376  -42.5117  -59.3279 H         1 UNK         0.1034 
     82 H82        28.3271  -44.0685  -60.0759 H         1 UNK         0.1034 
     83 H83        26.6581  -43.1090  -57.7018 H         1 UNK         0.0482 
     84 H84        24.6735  -44.1496  -60.3060 H         1 UNK         0.3460 
     85 H85        24.2961  -42.5538  -60.9087 H         1 UNK         0.3460 
     86 H86        26.5677  -45.5990  -59.2709 H         1 UNK         0.2989 
     87 H87        24.5243  -47.1363  -56.8703 H         1 UNK         0.0559 
     88 H88        22.7474  -46.4024  -58.4118 H         1 UNK         0.0848 
     89 H89        23.2294  -48.0504  -58.7773 H         1 UNK         0.0848 
     90 H90        23.7647  -46.7225  -59.8054 H         1 UNK         0.0848 
     91 H91        26.1793  -48.4195  -57.5415 H         1 UNK         0.3144 
     92 H92        27.5111  -49.4821  -60.4364 H         1 UNK         0.0727 
     93 H93        29.2499  -47.4588  -58.9194 H         1 UNK         0.0790 
     94 H94        29.0055  -47.5207  -60.6581 H         1 UNK         0.0790 
     95 H95        29.8627  -48.8234  -59.8531 H         1 UNK         0.0790 
     96 H96        28.4401  -49.3902  -57.6381 H         1 UNK         0.3215 
     97 H97        26.9745  -52.6211  -56.9746 H         1 UNK         0.0863 
     98 H98        29.3403  -53.0459  -56.3799 H         1 UNK         0.0808 
     99 H99        29.8510  -51.5960  -57.2419 H         1 UNK         0.0808 
    100 H100       29.1602  -52.9525  -58.1242 H         1 UNK         0.0808 
    101 H101       28.1760  -50.1481  -55.7616 H         1 UNK         0.3118 
    102 H102       26.0302  -50.3648  -53.0234 H         1 UNK         0.0546 
    103 H103       28.9753  -51.1793  -52.7869 H         1 UNK         0.0828 
    104 H104       27.6067  -52.0541  -52.1144 H         1 UNK         0.0828 
    105 H105       28.0079  -50.4567  -51.5033 H         1 UNK         0.0828 
    106 H106       28.4226  -48.8312  -53.4321 H         1 UNK         0.3005 
    107 H107       27.1217  -46.5762  -55.7945 H         1 UNK         0.1257 
    108 H108       26.9208  -44.7579  -54.3741 H         1 UNK         0.0775 
    109 H109       25.8519  -45.8573  -53.6108 H         1 UNK         0.0775 
    110 H110       27.5442  -43.1552  -52.5553 H         1 UNK         0.0840 
    111 H111       28.7220  -43.5184  -51.3250 H         1 UNK         0.0840 
    112 H112       29.3860  -46.2349  -54.2028 H         1 UNK         0.2987 
    113 H113       31.4948  -48.7695  -55.4235 H         1 UNK         0.0785 
    114 H114       31.6186  -47.1817  -57.3610 H         1 UNK         0.0798 
    115 H115       32.9807  -46.9924  -56.2704 H         1 UNK         0.0798 
    116 H116       31.6568  -45.8250  -56.2476 H         1 UNK         0.0798 
    117 H117       32.2808  -46.5994  -53.9005 H         1 UNK         0.3079 
    118 H118       31.7069  -46.2115  -51.5963 H         1 UNK         0.0794 
    119 H119       31.2922  -47.1928  -49.3590 H         1 UNK         0.0786 
    120 H120       30.8582  -48.7385  -50.0876 H         1 UNK         0.0786 
    121 H121       29.8597  -47.3213  -50.3679 H         1 UNK         0.0786 
    122 H122       33.7853  -46.9071  -51.2961 H         1 UNK         0.3032 
    123 H123       35.3835  -48.8469  -50.0168 H         1 UNK         0.1094 
    124 H124       35.5470  -50.6157  -52.5132 H         1 UNK         0.0794 
    125 H125       36.8524  -50.3889  -51.3500 H         1 UNK         0.0794 
    126 H126       35.3538  -51.1559  -50.8535 H         1 UNK         0.0794 
    127 H127       36.4202  -47.2696  -51.1854 H         1 UNK         0.3016 
@<TRIPOS>BOND
     1    1    2 1    
     2    1   67 1    
     3    1   68 1    
     4    1   69 1    
     5    2    3 2    
     6    2    4 am   BACKBONE|DICT|INTERRES
     7    4    5 1    
     8    4   70 1    
     9    5    6 1    
    10    5   65 1    
    11    5   71 1    
    12    6    7 1    
    13    6   72 1    
    14    6   73 1    
    15    7    8 1    
    16    8    9 1    
    17    8   74 1    
    18    8   75 1    
    19    9   10 ar   
    20    9   14 ar   
    21   10   11 ar   
    22   10   76 1    
    23   11   12 ar   
    24   11   48 1    
    25   12   13 ar   
    26   12   77 1    
    27   13   14 ar   
    28   13   15 1    
    29   14   78 1    
    30   15   16 1    
    31   15   79 1    
    32   15   80 1    
    33   16   17 1    
    34   17   18 1    
    35   17   81 1    
    36   17   82 1    
    37   18   19 1    
    38   18   22 1    
    39   18   83 1    
    40   19   20 am   BACKBONE|DICT|INTERRES
    41   19   21 2    
    42   20   84 1    
    43   20   85 1    
    44   22   23 am   BACKBONE|DICT|INTERRES
    45   22   86 1    
    46   23   24 2    
    47   23   25 1    
    48   25   26 1    
    49   25   27 1    
    50   25   87 1    
    51   26   88 1    
    52   26   89 1    
    53   26   90 1    
    54   27   28 am   BACKBONE|DICT|INTERRES
    55   27   91 1    
    56   28   29 2    
    57   28   30 1    
    58   30   31 1    
    59   30   32 1    
    60   30   92 1    
    61   31   93 1    
    62   31   94 1    
    63   31   95 1    
    64   32   33 am   BACKBONE|DICT|INTERRES
    65   32   96 1    
    66   33   34 2    
    67   33   35 1    
    68   35   36 1    
    69   35   37 1    
    70   35   97 1    
    71   36   98 1    
    72   36   99 1    
    73   36  100 1    
    74   37   38 am   BACKBONE|DICT|INTERRES
    75   37  101 1    
    76   38   39 2    
    77   38   40 1    
    78   40   41 1    
    79   40   42 1    
    80   40  102 1    
    81   41  103 1    
    82   41  104 1    
    83   41  105 1    
    84   42   43 am   BACKBONE|DICT|INTERRES
    85   42  106 1    
    86   43   44 2    
    87   43   45 1    
    88   45   46 1    
    89   45   49 1    
    90   45  107 1    
    91   46   47 1    
    92   46  108 1    
    93   46  109 1    
    94   47   48 1    
    95   48  110 1    
    96   48  111 1    
    97   49   50 am   BACKBONE|DICT|INTERRES
    98   49  112 1    
    99   50   51 2    
   100   50   52 1    
   101   52   53 1    
   102   52   54 1    
   103   52  113 1    
   104   53  114 1    
   105   53  115 1    
   106   53  116 1    
   107   54   55 am   BACKBONE|DICT|INTERRES
   108   54  117 1    
   109   55   56 2    
   110   55   57 1    
   111   57   58 1    
   112   57   59 1    
   113   57  118 1    
   114   58  119 1    
   115   58  120 1    
   116   58  121 1    
   117   59   60 am   BACKBONE|DICT|INTERRES
   118   59  122 1    
   119   60   61 2    
   120   60   62 1    
   121   62   63 1    
   122   62   64 1    
   123   62  123 1    
   124   63  124 1    
   125   63  125 1    
   126   63  126 1    
   127   64   65 am   BACKBONE|DICT|INTERRES
   128   64  127 1    
   129   65   66 2    
@<TRIPOS>SUBSTRUCTURE
     1 UNK         1 GROUP             0       ****    0 ROOT    
