@<TRIPOS>MOLECULE
3R134
127   129    1
SMALL
USER_CHARGES


@<TRIPOS>ATOM
      1 CA         34.2482  -45.0708  -52.3564 C.3       0 UNK        -0.1968 
      2 C          34.5091  -45.3201  -53.8344 C.2       0 UNK         0.4852 
      3 O          35.6659  -45.4343  -54.2413 O.2       0 UNK        -0.5359 
      4 N          33.4410  -45.4112  -54.6383 N.am      1 UNK        -0.4300 
      5 CA         33.4904  -45.7031  -56.0778 C.3       1 UNK         0.0863 
      6 C6         32.1662  -45.3022  -56.7750 C.3       11 UNK        -0.0953 
      7 S7         32.0452  -43.5074  -57.0915 S.3       11 UNK        -0.2369 
      8 C8         31.6663  -42.7762  -55.4594 C.3       11 UNK         0.0226 
      9 C9         30.4744  -43.4057  -54.7458 C.ar      11 UNK        -0.0699 
     10 C10        30.5620  -43.7245  -53.3863 C.ar      11 UNK        -0.0804 
     11 C11        29.4761  -44.2997  -52.7189 C.ar      11 UNK        -0.0871 
     12 C12        28.2858  -44.5308  -53.4152 C.ar      11 UNK        -0.1008 
     13 C13        28.1863  -44.2204  -54.7726 C.ar      11 UNK        -0.0735 
     14 C14        29.2807  -43.6538  -55.4300 C.ar      11 UNK        -0.0945 
     15 C15        26.9191  -44.5566  -55.5412 C.3       11 UNK         0.0169 
     16 S16        25.6071  -43.3095  -55.3512 S.3       11 UNK        -0.2669 
     17 C17        26.2397  -41.8772  -56.2948 C.3       11 UNK        -0.0850 
     18 CA         25.6990  -41.8259  -57.7571 C.3       10 UNK         0.0855 
     19 C          25.7943  -40.4047  -58.3974 C.2       10 UNK         0.5543 
     20 N          25.9486  -40.2837  -59.7105 N.am      10 UNK        -0.7343 
     21 O          25.6896  -39.3945  -57.7056 O.2       10 UNK        -0.5027 
     22 N          26.2314  -42.9175  -58.5962 N.am      10 UNK        -0.4495 
     23 C          27.5070  -43.0771  -58.9762 C.2       10 UNK         0.4903 
     24 O          28.4078  -42.2873  -58.6917 O.2       10 UNK        -0.4860 
     25 CA         27.8301  -44.3495  -59.7861 C.3       9 UNK         0.0227 
     26 CB         29.3351  -44.4970  -60.0804 C.3       9 UNK        -0.1964 
     27 N          27.3733  -45.5581  -59.0975 N.am      9 UNK        -0.4231 
     28 C          26.1277  -46.0460  -59.0879 C.2       9 UNK         0.5014 
     29 O          25.1971  -45.5139  -59.6964 O.2       9 UNK        -0.5270 
     30 CA         25.8752  -47.3152  -58.2421 C.3       8 UNK         0.0284 
     31 CB         24.5521  -48.0118  -58.6120 C.3       8 UNK        -0.1977 
     32 N          26.9631  -48.3001  -58.3064 N.am      8 UNK        -0.4342 
     33 C          28.1470  -48.1974  -57.6908 C.2       8 UNK         0.5039 
     34 O          28.4854  -47.2191  -57.0228 O.2       8 UNK        -0.5547 
     35 CA         29.1365  -49.3512  -57.8846 C.3       7 UNK         0.0281 
     36 CB         30.4744  -48.8368  -58.4439 C.3       7 UNK        -0.1963 
     37 N          29.3649  -50.0147  -56.6038 N.am      7 UNK        -0.4444 
     38 C          28.5911  -50.9856  -56.1023 C.2       7 UNK         0.5104 
     39 O          27.6286  -51.4674  -56.7012 O.2       7 UNK        -0.5100 
     40 CA         28.9513  -51.5265  -54.7043 C.3       6 UNK         0.0396 
     41 CB         29.7782  -52.8158  -54.8299 C.3       6 UNK        -0.1801 
     42 N          29.6727  -50.5771  -53.8489 N.am      6 UNK        -0.4747 
     43 C          29.1540  -49.4401  -53.3573 C.2       6 UNK         0.5012 
     44 O          28.0047  -49.0665  -53.5964 O.2       6 UNK        -0.5003 
     45 CA         30.0791  -48.5940  -52.4499 C.3       5 UNK         0.0782 
     46 C46        29.3313  -47.4655  -51.6872 C.3       11 UNK        -0.0868 
     47 S47        30.4879  -46.2356  -50.9911 S.3       11 UNK        -0.2515 
     48 C48        29.5872  -44.6696  -51.2457 C.3       11 UNK         0.0199 
     49 N          30.9051  -49.4357  -51.5713 N.am      5 UNK        -0.4607 
     50 C          30.4616  -50.2671  -50.6132 C.2       4 UNK         0.5031 
     51 O          29.2708  -50.4009  -50.3273 O.2       4 UNK        -0.5119 
     52 CA         31.5150  -51.0851  -49.8316 C.3       4 UNK         0.0263 
     53 CB         30.9714  -52.4553  -49.3709 C.3       4 UNK        -0.1967 
     54 N          32.7972  -51.2456  -50.5311 N.am      4 UNK        -0.4237 
     55 C          33.0019  -51.8432  -51.7134 C.2       3 UNK         0.4908 
     56 O          32.1235  -52.3907  -52.3828 O.2       3 UNK        -0.5102 
     57 CA         34.4303  -51.7527  -52.2763 C.3       3 UNK         0.0241 
     58 CB         35.0690  -53.1481  -52.3710 C.3       3 UNK        -0.1971 
     59 N          34.4471  -51.1161  -53.5966 N.am      3 UNK        -0.4139 
     60 C          33.9524  -49.9011  -53.8691 C.2       2 UNK         0.5016 
     61 O          33.4612  -49.1464  -53.0204 O.2       2 UNK        -0.5319 
     62 CA         33.9805  -49.4645  -55.3382 C.3       2 UNK         0.0286 
     63 CB         33.0193  -50.3100  -56.1932 C.3       2 UNK        -0.1963 
     64 N          33.5970  -48.0588  -55.3769 N.am      2 UNK        -0.4790 
     65 C          33.8403  -47.1827  -56.3569 C.2       1 UNK         0.5024 
     66 O          34.3382  -47.4946  -57.4393 O.2       1 UNK        -0.4888 
     67 H67        34.7897  -45.7991  -51.7530 H         1 UNK         0.0892 
     68 H68        34.5886  -44.0742  -52.0766 H         1 UNK         0.0892 
     69 H69        33.1907  -45.1545  -52.1080 H         1 UNK         0.0892 
     70 H70        32.5149  -45.2985  -54.2522 H         1 UNK         0.3107 
     71 H71        34.3006  -45.1149  -56.5150 H         1 UNK         0.0773 
     72 H72        31.2963  -45.6500  -56.2150 H         1 UNK         0.0680 
     73 H73        32.0885  -45.7766  -57.7555 H         1 UNK         0.0680 
     74 H74        31.4571  -41.7155  -55.6026 H         1 UNK         0.0650 
     75 H75        32.5619  -42.8234  -54.8393 H         1 UNK         0.0650 
     76 H76        31.4749  -43.5257  -52.8420 H         1 UNK         0.1397 
     77 H77        27.4389  -44.9727  -52.9081 H         1 UNK         0.1363 
     78 H78        29.2117  -43.4195  -56.4824 H         1 UNK         0.1355 
     79 H79        27.1478  -44.6880  -56.5944 H         1 UNK         0.0707 
     80 H80        26.5382  -45.5200  -55.1989 H         1 UNK         0.0707 
     81 H81        25.9215  -40.9948  -55.7373 H         1 UNK         0.1034 
     82 H82        27.3286  -41.8502  -56.2748 H         1 UNK         0.1034 
     83 H83        24.6252  -42.0089  -57.7048 H         1 UNK         0.0482 
     84 H84        26.0238  -41.1028  -60.2918 H         1 UNK         0.3460 
     85 H85        25.9974  -39.3644  -60.1208 H         1 UNK         0.3460 
     86 H86        25.5617  -43.6169  -58.8975 H         1 UNK         0.2989 
     87 H87        27.3088  -44.2671  -60.7419 H         1 UNK         0.0559 
     88 H88        29.5369  -45.3788  -60.6887 H         1 UNK         0.0848 
     89 H89        29.9183  -44.5830  -59.1624 H         1 UNK         0.0848 
     90 H90        29.7150  -43.6338  -60.6284 H         1 UNK         0.0848 
     91 H91        28.0413  -46.0168  -58.4830 H         1 UNK         0.3144 
     92 H92        25.7880  -46.9810  -57.2063 H         1 UNK         0.0727 
     93 H93        24.5506  -48.3490  -59.6493 H         1 UNK         0.0790 
     94 H94        23.7036  -47.3376  -58.4866 H         1 UNK         0.0790 
     95 H95        24.3669  -48.8776  -57.9758 H         1 UNK         0.0790 
     96 H96        26.7795  -49.1274  -58.8569 H         1 UNK         0.3215 
     97 H97        28.7255  -50.0661  -58.6012 H         1 UNK         0.0863 
     98 H98        31.1454  -49.6625  -58.6789 H         1 UNK         0.0808 
     99 H99        30.9842  -48.1764  -57.7412 H         1 UNK         0.0808 
    100 H100       30.3224  -48.2747  -59.3663 H         1 UNK         0.0808 
    101 H101       30.0843  -49.6273  -56.0138 H         1 UNK         0.3118 
    102 H102       28.0133  -51.7752  -54.2035 H         1 UNK         0.0546 
    103 H103       30.7557  -52.6284  -55.2760 H         1 UNK         0.0828 
    104 H104       29.2685  -53.5501  -55.4552 H         1 UNK         0.0828 
    105 H105       29.9387  -53.2794  -53.8563 H         1 UNK         0.0828 
    106 H106       30.5969  -50.8563  -53.5443 H         1 UNK         0.3005 
    107 H107       30.7716  -48.1103  -53.1410 H         1 UNK         0.1257 
    108 H108       28.7157  -47.8697  -50.8829 H         1 UNK         0.0775 
    109 H109       28.6417  -46.9532  -52.3551 H         1 UNK         0.0775 
    110 H110       28.5987  -44.7435  -50.7894 H         1 UNK         0.0840 
    111 H111       30.1075  -43.8738  -50.7107 H         1 UNK         0.0840 
    112 H112       31.9023  -49.3952  -51.7596 H         1 UNK         0.2987 
    113 H113       31.7331  -50.5019  -48.9357 H         1 UNK         0.0785 
    114 H114       30.1079  -52.3356  -48.7153 H         1 UNK         0.0798 
    115 H115       31.7228  -53.0138  -48.8128 H         1 UNK         0.0798 
    116 H116       30.6544  -53.0692  -50.2146 H         1 UNK         0.0798 
    117 H117       33.5866  -50.7965  -50.0866 H         1 UNK         0.3079 
    118 H118       35.0409  -51.1405  -51.6092 H         1 UNK         0.0794 
    119 H119       35.0828  -53.6374  -51.3961 H         1 UNK         0.0786 
    120 H120       36.1008  -53.0913  -52.7183 H         1 UNK         0.0786 
    121 H121       34.5191  -53.7980  -53.0533 H         1 UNK         0.0786 
    122 H122       34.8050  -51.6755  -54.3569 H         1 UNK         0.3032 
    123 H123       35.0024  -49.5670  -55.7105 H         1 UNK         0.1094 
    124 H124       33.0291  -49.9891  -57.2342 H         1 UNK         0.0794 
    125 H125       33.3001  -51.3637  -56.1843 H         1 UNK         0.0794 
    126 H126       31.9972  -50.2434  -55.8257 H         1 UNK         0.0794 
    127 H127       33.2532  -47.7205  -54.4858 H         1 UNK         0.3016 
@<TRIPOS>BOND
     1    1    2 1    
     2    1   67 1    
     3    1   68 1    
     4    1   69 1    
     5    2    3 2    
     6    2    4 am   BACKBONE|DICT|INTERRES
     7    4    5 1    
     8    4   70 1    
     9    5    6 1    
    10    5   65 1    
    11    5   71 1    
    12    6    7 1    
    13    6   72 1    
    14    6   73 1    
    15    7    8 1    
    16    8    9 1    
    17    8   74 1    
    18    8   75 1    
    19    9   10 ar   
    20    9   14 ar   
    21   10   11 ar   
    22   10   76 1    
    23   11   12 ar   
    24   11   48 1    
    25   12   13 ar   
    26   12   77 1    
    27   13   14 ar   
    28   13   15 1    
    29   14   78 1    
    30   15   16 1    
    31   15   79 1    
    32   15   80 1    
    33   16   17 1    
    34   17   18 1    
    35   17   81 1    
    36   17   82 1    
    37   18   19 1    
    38   18   22 1    
    39   18   83 1    
    40   19   20 am   BACKBONE|DICT|INTERRES
    41   19   21 2    
    42   20   84 1    
    43   20   85 1    
    44   22   23 am   BACKBONE|DICT|INTERRES
    45   22   86 1    
    46   23   24 2    
    47   23   25 1    
    48   25   26 1    
    49   25   27 1    
    50   25   87 1    
    51   26   88 1    
    52   26   89 1    
    53   26   90 1    
    54   27   28 am   BACKBONE|DICT|INTERRES
    55   27   91 1    
    56   28   29 2    
    57   28   30 1    
    58   30   31 1    
    59   30   32 1    
    60   30   92 1    
    61   31   93 1    
    62   31   94 1    
    63   31   95 1    
    64   32   33 am   BACKBONE|DICT|INTERRES
    65   32   96 1    
    66   33   34 2    
    67   33   35 1    
    68   35   36 1    
    69   35   37 1    
    70   35   97 1    
    71   36   98 1    
    72   36   99 1    
    73   36  100 1    
    74   37   38 am   BACKBONE|DICT|INTERRES
    75   37  101 1    
    76   38   39 2    
    77   38   40 1    
    78   40   41 1    
    79   40   42 1    
    80   40  102 1    
    81   41  103 1    
    82   41  104 1    
    83   41  105 1    
    84   42   43 am   BACKBONE|DICT|INTERRES
    85   42  106 1    
    86   43   44 2    
    87   43   45 1    
    88   45   46 1    
    89   45   49 1    
    90   45  107 1    
    91   46   47 1    
    92   46  108 1    
    93   46  109 1    
    94   47   48 1    
    95   48  110 1    
    96   48  111 1    
    97   49   50 am   BACKBONE|DICT|INTERRES
    98   49  112 1    
    99   50   51 2    
   100   50   52 1    
   101   52   53 1    
   102   52   54 1    
   103   52  113 1    
   104   53  114 1    
   105   53  115 1    
   106   53  116 1    
   107   54   55 am   BACKBONE|DICT|INTERRES
   108   54  117 1    
   109   55   56 2    
   110   55   57 1    
   111   57   58 1    
   112   57   59 1    
   113   57  118 1    
   114   58  119 1    
   115   58  120 1    
   116   58  121 1    
   117   59   60 am   BACKBONE|DICT|INTERRES
   118   59  122 1    
   119   60   61 2    
   120   60   62 1    
   121   62   63 1    
   122   62   64 1    
   123   62  123 1    
   124   63  124 1    
   125   63  125 1    
   126   63  126 1    
   127   64   65 am   BACKBONE|DICT|INTERRES
   128   64  127 1    
   129   65   66 2    
@<TRIPOS>SUBSTRUCTURE
     1 UNK         1 GROUP             0       ****    0 ROOT    
