@<TRIPOS>MOLECULE
3R134
127   129    1
SMALL
USER_CHARGES


@<TRIPOS>ATOM
      1 CA         36.4757  -47.9562  -58.3700 C.3       0 UNK        -0.1968 
      2 C          35.2671  -48.0800  -57.4540 C.2       0 UNK         0.4852 
      3 O          34.8853  -49.1930  -57.0940 O.2       0 UNK        -0.5359 
      4 N          34.6653  -46.9451  -57.0751 N.am      1 UNK        -0.4300 
      5 CA         33.5014  -46.8589  -56.1842 C.3       1 UNK         0.0863 
      6 C6         32.7236  -45.5331  -56.3794 C.3       11 UNK        -0.0953 
      7 S7         33.7461  -44.0157  -56.3215 S.3       11 UNK        -0.2369 
      8 C8         33.7256  -43.5477  -54.5560 C.3       11 UNK         0.0226 
      9 C9         32.3277  -43.4683  -53.9537 C.ar      11 UNK        -0.0699 
     10 C10        32.0409  -44.1505  -52.7673 C.ar      11 UNK        -0.0804 
     11 C11        30.7640  -44.0903  -52.2014 C.ar      11 UNK        -0.0871 
     12 C12        29.7630  -43.3536  -52.8402 C.ar      11 UNK        -0.1008 
     13 C13        30.0394  -42.6609  -54.0226 C.ar      11 UNK        -0.0735 
     14 C14        31.3251  -42.7110  -54.5680 C.ar      11 UNK        -0.0945 
     15 C15        28.9485  -41.8585  -54.7103 C.3       11 UNK         0.0169 
     16 S16        28.2774  -42.7717  -56.1295 S.3       11 UNK        -0.2669 
     17 C17        26.6984  -41.8846  -56.3732 C.3       11 UNK        -0.0850 
     18 CA         25.7793  -42.5438  -57.4355 C.3       10 UNK         0.0855 
     19 C          26.2102  -42.1858  -58.8899 C.2       10 UNK         0.5543 
     20 N          26.5368  -43.1386  -59.7551 N.am      10 UNK        -0.7343 
     21 O          26.2321  -41.0099  -59.2458 O.2       10 UNK        -0.5027 
     22 N          25.6115  -43.9778  -57.1648 N.am      10 UNK        -0.4495 
     23 C          24.6157  -44.7506  -57.6081 C.2       10 UNK         0.4903 
     24 O          23.6316  -44.3209  -58.2122 O.2       10 UNK        -0.4860 
     25 CA         24.7624  -46.2604  -57.3291 C.3       9 UNK         0.0227 
     26 CB         23.8716  -47.1234  -58.2467 C.3       9 UNK        -0.1964 
     27 N          26.1525  -46.7383  -57.3762 N.am      9 UNK        -0.4231 
     28 C          27.0124  -46.6450  -58.4044 C.2       9 UNK         0.5014 
     29 O          26.7779  -46.0380  -59.4500 O.2       9 UNK        -0.5270 
     30 CA         28.3598  -47.3708  -58.2459 C.3       8 UNK         0.0284 
     31 CB         29.3510  -46.5203  -57.4351 C.3       8 UNK        -0.1977 
     32 N          28.2148  -48.6886  -57.6231 N.am      8 UNK        -0.4342 
     33 C          27.5430  -49.7208  -58.1564 C.2       8 UNK         0.5039 
     34 O          27.0585  -49.7178  -59.2887 O.2       8 UNK        -0.5547 
     35 CA         27.3536  -50.9565  -57.2636 C.3       7 UNK         0.0281 
     36 CB         28.5732  -51.8885  -57.3439 C.3       7 UNK        -0.1963 
     37 N          27.1041  -50.5723  -55.8723 N.am      7 UNK        -0.4444 
     38 C          25.9182  -50.1470  -55.4128 C.2       7 UNK         0.5104 
     39 O          24.8909  -50.1201  -56.0902 O.2       7 UNK        -0.5100 
     40 CA         25.8616  -49.6615  -53.9534 C.3       6 UNK         0.0396 
     41 CB         25.4276  -50.8064  -53.0247 C.3       6 UNK        -0.1801 
     42 N          27.1289  -49.1036  -53.4740 N.am      6 UNK        -0.4747 
     43 C          27.6507  -47.9338  -53.8732 C.2       6 UNK         0.5012 
     44 O          27.1137  -47.1915  -54.6957 O.2       6 UNK        -0.5003 
     45 CA         29.0277  -47.5657  -53.2834 C.3       5 UNK         0.0782 
     46 C46        28.8608  -46.8927  -51.8966 C.3       11 UNK        -0.0868 
     47 S47        30.4525  -46.5993  -51.0451 S.3       11 UNK        -0.2515 
     48 C48        30.4816  -44.7887  -50.8795 C.3       11 UNK         0.0199 
     49 N          29.9355  -48.7167  -53.2197 N.am      5 UNK        -0.4607 
     50 C          30.3445  -49.4678  -54.2495 C.2       4 UNK         0.5031 
     51 O          29.8996  -49.3530  -55.3921 O.2       4 UNK        -0.5119 
     52 CA         31.4322  -50.5090  -53.9394 C.3       4 UNK         0.0263 
     53 CB         32.2409  -50.9153  -55.1845 C.3       4 UNK        -0.1967 
     54 N          32.3411  -49.9862  -52.9180 N.am      4 UNK        -0.4237 
     55 C          32.8223  -50.6687  -51.8708 C.2       3 UNK         0.4908 
     56 O          32.5559  -51.8519  -51.6533 O.2       3 UNK        -0.5102 
     57 CA         33.7238  -49.8987  -50.8793 C.3       3 UNK         0.0241 
     58 CB         34.7602  -50.8081  -50.1834 C.3       3 UNK        -0.1971 
     59 N          34.3619  -48.7066  -51.4564 N.am      3 UNK        -0.4139 
     60 C          35.2620  -48.6679  -52.4506 C.2       2 UNK         0.5016 
     61 O          35.7566  -49.6608  -52.9881 O.2       2 UNK        -0.5319 
     62 CA         35.6322  -47.2667  -52.9697 C.3       2 UNK         0.0286 
     63 CB         37.1544  -47.0482  -52.9533 C.3       2 UNK        -0.1963 
     64 N          35.1283  -47.0468  -54.3281 N.am      2 UNK        -0.4790 
     65 C          33.8386  -47.1000  -54.6968 C.2       1 UNK         0.5024 
     66 O          32.9208  -47.3175  -53.9047 O.2       1 UNK        -0.4888 
     67 H67        36.2939  -48.4876  -59.3039 H         1 UNK         0.0892 
     68 H68        36.7023  -46.9175  -58.6100 H         1 UNK         0.0892 
     69 H69        37.3532  -48.3937  -57.8944 H         1 UNK         0.0892 
     70 H70        35.0162  -46.0558  -57.4041 H         1 UNK         0.3107 
     71 H71        32.8192  -47.6661  -56.4607 H         1 UNK         0.0773 
     72 H72        31.8867  -45.4606  -55.6826 H         1 UNK         0.0680 
     73 H73        32.2615  -45.5472  -57.3671 H         1 UNK         0.0680 
     74 H74        34.3465  -44.2517  -54.0012 H         1 UNK         0.0650 
     75 H75        34.2054  -42.5740  -54.4509 H         1 UNK         0.0650 
     76 H76        32.8108  -44.7322  -52.2790 H         1 UNK         0.1397 
     77 H77        28.7710  -43.3087  -52.4118 H         1 UNK         0.1363 
     78 H78        31.5390  -42.1779  -55.4844 H         1 UNK         0.1355 
     79 H79        28.1483  -41.6318  -54.0040 H         1 UNK         0.0707 
     80 H80        29.3440  -40.8998  -55.0492 H         1 UNK         0.0707 
     81 H81        26.1710  -41.8651  -55.4181 H         1 UNK         0.1034 
     82 H82        26.9020  -40.8396  -56.6158 H         1 UNK         0.1034 
     83 H83        24.7943  -42.0875  -57.3192 H         1 UNK         0.0482 
     84 H84        26.5238  -44.1198  -59.4935 H         1 UNK         0.3460 
     85 H85        26.8046  -42.8783  -60.6904 H         1 UNK         0.3460 
     86 H86        26.3885  -44.4177  -56.6926 H         1 UNK         0.2989 
     87 H87        24.4265  -46.4139  -56.3027 H         1 UNK         0.0559 
     88 H88        22.8180  -46.8688  -58.1260 H         1 UNK         0.0848 
     89 H89        23.9759  -48.1837  -58.0154 H         1 UNK         0.0848 
     90 H90        24.1231  -46.9844  -59.2988 H         1 UNK         0.0848 
     91 H91        26.4916  -47.1652  -56.5172 H         1 UNK         0.3144 
     92 H92        28.7769  -47.5219  -59.2437 H         1 UNK         0.0727 
     93 H93        30.3096  -47.0285  -57.3334 H         1 UNK         0.0790 
     94 H94        28.9815  -46.3034  -56.4329 H         1 UNK         0.0790 
     95 H95        29.5365  -45.5635  -57.9252 H         1 UNK         0.0790 
     96 H96        28.6651  -48.8236  -56.7206 H         1 UNK         0.3215 
     97 H97        26.4865  -51.5078  -57.6347 H         1 UNK         0.0863 
     98 H98        28.4431  -52.7701  -56.7161 H         1 UNK         0.0808 
     99 H99        29.4900  -51.3873  -57.0360 H         1 UNK         0.0808 
    100 H100       28.7249  -52.2380  -58.3660 H         1 UNK         0.0808 
    101 H101       27.9084  -50.5138  -55.2634 H         1 UNK         0.3118 
    102 H102       25.1051  -48.8755  -53.8988 H         1 UNK         0.0546 
    103 H103       26.1519  -51.6219  -53.0202 H         1 UNK         0.0828 
    104 H104       24.4705  -51.2234  -53.3416 H         1 UNK         0.0828 
    105 H105       25.3030  -50.4604  -51.9985 H         1 UNK         0.0828 
    106 H106       27.6462  -49.6525  -52.8020 H         1 UNK         0.3005 
    107 H107       29.4864  -46.8393  -53.9588 H         1 UNK         0.1257 
    108 H108       28.3195  -45.9505  -51.9996 H         1 UNK         0.0775 
    109 H109       28.2553  -47.5162  -51.2357 H         1 UNK         0.0775 
    110 H110       29.5411  -44.4466  -50.4447 H         1 UNK         0.0840 
    111 H111       31.2591  -44.5176  -50.1638 H         1 UNK         0.0840 
    112 H112       30.3673  -48.8691  -52.3199 H         1 UNK         0.2987 
    113 H113       30.9130  -51.3916  -53.5609 H         1 UNK         0.0785 
    114 H114       31.6025  -51.3717  -55.9406 H         1 UNK         0.0798 
    115 H115       33.0148  -51.6412  -54.9348 H         1 UNK         0.0798 
    116 H116       32.7279  -50.0543  -55.6423 H         1 UNK         0.0798 
    117 H117       32.6049  -49.0102  -53.0392 H         1 UNK         0.3079 
    118 H118       33.0508  -49.5263  -50.1055 H         1 UNK         0.0794 
    119 H119       35.3769  -50.2444  -49.4835 H         1 UNK         0.0786 
    120 H120       35.4230  -51.2920  -50.9013 H         1 UNK         0.0786 
    121 H121       34.2687  -51.5983  -49.6145 H         1 UNK         0.0786 
    122 H122       34.0039  -47.8260  -51.1119 H         1 UNK         0.3032 
    123 H123       35.1768  -46.5149  -52.3212 H         1 UNK         0.1094 
    124 H124       37.6698  -47.7403  -53.6209 H         1 UNK         0.0794 
    125 H125       37.4140  -46.0334  -53.2556 H         1 UNK         0.0794 
    126 H126       37.5587  -47.2006  -51.9517 H         1 UNK         0.0794 
    127 H127       35.8182  -46.8905  -55.0476 H         1 UNK         0.3016 
@<TRIPOS>BOND
     1    1    2 1    
     2    1   67 1    
     3    1   68 1    
     4    1   69 1    
     5    2    3 2    
     6    2    4 am   BACKBONE|DICT|INTERRES
     7    4    5 1    
     8    4   70 1    
     9    5    6 1    
    10    5   65 1    
    11    5   71 1    
    12    6    7 1    
    13    6   72 1    
    14    6   73 1    
    15    7    8 1    
    16    8    9 1    
    17    8   74 1    
    18    8   75 1    
    19    9   10 ar   
    20    9   14 ar   
    21   10   11 ar   
    22   10   76 1    
    23   11   12 ar   
    24   11   48 1    
    25   12   13 ar   
    26   12   77 1    
    27   13   14 ar   
    28   13   15 1    
    29   14   78 1    
    30   15   16 1    
    31   15   79 1    
    32   15   80 1    
    33   16   17 1    
    34   17   18 1    
    35   17   81 1    
    36   17   82 1    
    37   18   19 1    
    38   18   22 1    
    39   18   83 1    
    40   19   20 am   BACKBONE|DICT|INTERRES
    41   19   21 2    
    42   20   84 1    
    43   20   85 1    
    44   22   23 am   BACKBONE|DICT|INTERRES
    45   22   86 1    
    46   23   24 2    
    47   23   25 1    
    48   25   26 1    
    49   25   27 1    
    50   25   87 1    
    51   26   88 1    
    52   26   89 1    
    53   26   90 1    
    54   27   28 am   BACKBONE|DICT|INTERRES
    55   27   91 1    
    56   28   29 2    
    57   28   30 1    
    58   30   31 1    
    59   30   32 1    
    60   30   92 1    
    61   31   93 1    
    62   31   94 1    
    63   31   95 1    
    64   32   33 am   BACKBONE|DICT|INTERRES
    65   32   96 1    
    66   33   34 2    
    67   33   35 1    
    68   35   36 1    
    69   35   37 1    
    70   35   97 1    
    71   36   98 1    
    72   36   99 1    
    73   36  100 1    
    74   37   38 am   BACKBONE|DICT|INTERRES
    75   37  101 1    
    76   38   39 2    
    77   38   40 1    
    78   40   41 1    
    79   40   42 1    
    80   40  102 1    
    81   41  103 1    
    82   41  104 1    
    83   41  105 1    
    84   42   43 am   BACKBONE|DICT|INTERRES
    85   42  106 1    
    86   43   44 2    
    87   43   45 1    
    88   45   46 1    
    89   45   49 1    
    90   45  107 1    
    91   46   47 1    
    92   46  108 1    
    93   46  109 1    
    94   47   48 1    
    95   48  110 1    
    96   48  111 1    
    97   49   50 am   BACKBONE|DICT|INTERRES
    98   49  112 1    
    99   50   51 2    
   100   50   52 1    
   101   52   53 1    
   102   52   54 1    
   103   52  113 1    
   104   53  114 1    
   105   53  115 1    
   106   53  116 1    
   107   54   55 am   BACKBONE|DICT|INTERRES
   108   54  117 1    
   109   55   56 2    
   110   55   57 1    
   111   57   58 1    
   112   57   59 1    
   113   57  118 1    
   114   58  119 1    
   115   58  120 1    
   116   58  121 1    
   117   59   60 am   BACKBONE|DICT|INTERRES
   118   59  122 1    
   119   60   61 2    
   120   60   62 1    
   121   62   63 1    
   122   62   64 1    
   123   62  123 1    
   124   63  124 1    
   125   63  125 1    
   126   63  126 1    
   127   64   65 am   BACKBONE|DICT|INTERRES
   128   64  127 1    
   129   65   66 2    
@<TRIPOS>SUBSTRUCTURE
     1 UNK         1 GROUP             0       ****    0 ROOT    
