@<TRIPOS>MOLECULE
3R134
127   129    1
SMALL
USER_CHARGES


@<TRIPOS>ATOM
      1 CA         36.6289  -47.0509  -55.7632 C.3       0 UNK        -0.1968 
      2 C          35.4488  -46.7563  -54.8510 C.2       0 UNK         0.4852 
      3 O          34.4452  -47.4710  -54.9067 O.2       0 UNK        -0.5359 
      4 N          35.5670  -45.7252  -54.0015 N.am      1 UNK        -0.4300 
      5 CA         34.5515  -45.2150  -53.0643 C.3       1 UNK         0.0863 
      6 C6         34.8921  -43.7762  -52.5944 C.3       11 UNK        -0.0953 
      7 S7         34.9487  -42.5853  -53.9775 S.3       11 UNK        -0.2369 
      8 C8         33.4504  -41.5901  -53.6869 C.3       11 UNK         0.0226 
      9 C9         32.1786  -42.3547  -54.0264 C.ar      11 UNK        -0.0699 
     10 C10        31.4791  -43.0406  -53.0298 C.ar      11 UNK        -0.0804 
     11 C11        30.3138  -43.7497  -53.3361 C.ar      11 UNK        -0.0871 
     12 C12        29.8366  -43.7534  -54.6513 C.ar      11 UNK        -0.1008 
     13 C13        30.5105  -43.0440  -55.6515 C.ar      11 UNK        -0.0735 
     14 C14        31.6864  -42.3562  -55.3349 C.ar      11 UNK        -0.0945 
     15 C15        29.9585  -43.0003  -57.0688 C.3       11 UNK         0.0169 
     16 S16        28.6079  -41.7889  -57.1895 S.3       11 UNK        -0.2669 
     17 C17        28.3484  -41.6655  -58.9915 C.3       11 UNK        -0.0850 
     18 CA         27.1270  -42.4942  -59.4838 C.3       10 UNK         0.0855 
     19 C          26.5238  -41.9337  -60.8070 C.2       10 UNK         0.5543 
     20 N          26.1760  -42.7613  -61.7862 N.am      10 UNK        -0.7343 
     21 O          26.3454  -40.7260  -60.9458 O.2       10 UNK        -0.5027 
     22 N          27.4565  -43.9267  -59.5796 N.am      10 UNK        -0.4495 
     23 C          27.0206  -44.8909  -58.7634 C.2       10 UNK         0.4903 
     24 O          26.3161  -44.6960  -57.7702 O.2       10 UNK        -0.4860 
     25 CA         27.4790  -46.3150  -59.1284 C.3       9 UNK         0.0227 
     26 CB         28.9847  -46.4907  -58.8884 C.3       9 UNK        -0.1964 
     27 N          26.7641  -47.3327  -58.3576 N.am      9 UNK        -0.4231 
     28 C          25.5343  -47.7747  -58.6513 C.2       9 UNK         0.5014 
     29 O          24.8948  -47.4115  -59.6409 O.2       9 UNK        -0.5270 
     30 CA         24.9497  -48.8300  -57.7019 C.3       8 UNK         0.0284 
     31 CB         23.6418  -49.4635  -58.2198 C.3       8 UNK        -0.1977 
     32 N          25.9493  -49.8695  -57.4577 N.am      8 UNK        -0.4342 
     33 C          26.0841  -50.5574  -56.3195 C.2       8 UNK         0.5039 
     34 O          25.3256  -50.4154  -55.3585 O.2       8 UNK        -0.5547 
     35 CA         27.2383  -51.5818  -56.2474 C.3       7 UNK         0.0281 
     36 CB         28.2641  -51.4510  -57.3937 C.3       7 UNK        -0.1963 
     37 N          27.9473  -51.4646  -54.9745 N.am      7 UNK        -0.4444 
     38 C          27.5776  -52.0253  -53.8158 C.2       7 UNK         0.5104 
     39 O          26.6634  -52.8436  -53.7025 O.2       7 UNK        -0.5100 
     40 CA         28.3638  -51.5985  -52.5626 C.3       6 UNK         0.0396 
     41 CB         29.5418  -52.5536  -52.3148 C.3       6 UNK        -0.1801 
     42 N          28.8652  -50.2235  -52.6408 N.am      6 UNK        -0.4747 
     43 C          28.1028  -49.1185  -52.6307 C.2       6 UNK         0.5012 
     44 O          26.8822  -49.1268  -52.4726 O.2       6 UNK        -0.5003 
     45 CA         28.8319  -47.7776  -52.8304 C.3       5 UNK         0.0782 
     46 C46        29.3381  -47.2248  -51.4697 C.3       11 UNK        -0.0868 
     47 S47        30.5668  -45.8826  -51.6118 S.3       11 UNK        -0.2515 
     48 C48        29.5695  -44.4962  -52.2383 C.3       11 UNK         0.0199 
     49 N          29.9001  -47.9018  -53.8218 N.am      5 UNK        -0.4607 
     50 C          29.7312  -47.9146  -55.1490 C.2       4 UNK         0.5031 
     51 O          28.6367  -47.8581  -55.7123 O.2       4 UNK        -0.5119 
     52 CA         31.0182  -48.0175  -55.9867 C.3       4 UNK         0.0263 
     53 CB         31.6455  -46.6232  -56.1653 C.3       4 UNK        -0.1967 
     54 N          32.0246  -48.9005  -55.3914 N.am      4 UNK        -0.4237 
     55 C          31.8516  -50.1972  -55.0950 C.2       3 UNK         0.4908 
     56 O          30.8342  -50.8348  -55.3627 O.2       3 UNK        -0.5102 
     57 CA         32.9828  -50.8769  -54.3056 C.3       3 UNK         0.0241 
     58 CB         34.1121  -51.3199  -55.2491 C.3       3 UNK        -0.1971 
     59 N          33.5306  -50.0125  -53.2555 N.am      3 UNK        -0.4139 
     60 C          32.8403  -49.5535  -52.1996 C.2       2 UNK         0.5016 
     61 O          31.6727  -49.8565  -51.9585 O.2       2 UNK        -0.5319 
     62 CA         33.5459  -48.5093  -51.3304 C.3       2 UNK         0.0286 
     63 CB         34.7253  -49.1111  -50.5444 C.3       2 UNK        -0.1963 
     64 N          33.9863  -47.4307  -52.2068 N.am      2 UNK        -0.4790 
     65 C          34.2865  -46.1746  -51.8762 C.2       1 UNK         0.5024 
     66 O          34.3485  -45.7738  -50.7126 O.2       1 UNK        -0.4888 
     67 H67        36.3177  -46.9898  -56.8056 H         1 UNK         0.0892 
     68 H68        37.0030  -48.0573  -55.5777 H         1 UNK         0.0892 
     69 H69        37.4485  -46.3490  -55.6113 H         1 UNK         0.0892 
     70 H70        36.4287  -45.1987  -54.0051 H         1 UNK         0.3107 
     71 H71        33.6070  -45.1593  -53.6101 H         1 UNK         0.0773 
     72 H72        35.8605  -43.7607  -52.0912 H         1 UNK         0.0680 
     73 H73        34.1697  -43.4239  -51.8571 H         1 UNK         0.0680 
     74 H74        33.4303  -41.2484  -52.6509 H         1 UNK         0.0650 
     75 H75        33.5080  -40.6890  -54.2993 H         1 UNK         0.0650 
     76 H76        31.8439  -43.0334  -52.0119 H         1 UNK         0.1397 
     77 H77        28.9296  -44.2891  -54.8977 H         1 UNK         0.1363 
     78 H78        32.2146  -41.8106  -56.1049 H         1 UNK         0.1355 
     79 H79        29.5871  -43.9834  -57.3555 H         1 UNK         0.0707 
     80 H80        30.7491  -42.7448  -57.7760 H         1 UNK         0.0707 
     81 H81        29.2543  -41.9477  -59.5303 H         1 UNK         0.1034 
     82 H82        28.2091  -40.6023  -59.1954 H         1 UNK         0.1034 
     83 H83        26.3200  -42.3613  -58.7609 H         1 UNK         0.0482 
     84 H84        25.7805  -42.3808  -62.6319 H         1 UNK         0.3460 
     85 H85        26.2593  -43.7588  -61.6760 H         1 UNK         0.3460 
     86 H86        28.0325  -44.1817  -60.3692 H         1 UNK         0.2989 
     87 H87        27.2821  -46.4730  -60.1910 H         1 UNK         0.0559 
     88 H88        29.2207  -46.3360  -57.8395 H         1 UNK         0.0848 
     89 H89        29.5749  -45.7806  -59.4685 H         1 UNK         0.0848 
     90 H90        29.3195  -47.4910  -59.1639 H         1 UNK         0.0848 
     91 H91        27.1977  -47.6292  -57.4903 H         1 UNK         0.3144 
     92 H92        24.7326  -48.3089  -56.7668 H         1 UNK         0.0727 
     93 H93        23.2338  -50.1745  -57.5012 H         1 UNK         0.0790 
     94 H94        23.7964  -49.9903  -59.1621 H         1 UNK         0.0790 
     95 H95        22.8781  -48.7033  -58.3891 H         1 UNK         0.0790 
     96 H96        26.6123  -50.0294  -58.2043 H         1 UNK         0.3215 
     97 H97        26.7877  -52.5743  -56.3119 H         1 UNK         0.0863 
     98 H98        29.0700  -52.1764  -57.2780 H         1 UNK         0.0808 
     99 H99        28.7219  -50.4606  -57.4198 H         1 UNK         0.0808 
    100 H100       27.8092  -51.6431  -58.3662 H         1 UNK         0.0808 
    101 H101       28.7592  -50.8574  -54.9656 H         1 UNK         0.3118 
    102 H102       27.6874  -51.6607  -51.7077 H         1 UNK         0.0546 
    103 H103       29.1945  -53.5819  -52.2065 H         1 UNK         0.0828 
    104 H104       30.0792  -52.2938  -51.4025 H         1 UNK         0.0828 
    105 H105       30.2546  -52.5348  -53.1397 H         1 UNK         0.0828 
    106 H106       29.8748  -50.1102  -52.6845 H         1 UNK         0.3005 
    107 H107       28.0954  -47.0767  -53.2292 H         1 UNK         0.1257 
    108 H108       29.8171  -48.0155  -50.8882 H         1 UNK         0.0775 
    109 H109       28.4991  -46.8753  -50.8652 H         1 UNK         0.0775 
    110 H110       28.6064  -44.8519  -52.6047 H         1 UNK         0.0840 
    111 H111       29.3493  -43.8142  -51.4159 H         1 UNK         0.0840 
    112 H112       30.8359  -47.9660  -53.4504 H         1 UNK         0.2987 
    113 H113       30.7517  -48.4182  -56.9665 H         1 UNK         0.0785 
    114 H114       30.9374  -45.9042  -56.5696 H         1 UNK         0.0798 
    115 H115       32.4971  -46.6552  -56.8449 H         1 UNK         0.0798 
    116 H116       31.9927  -46.2146  -55.2154 H         1 UNK         0.0798 
    117 H117       32.9210  -48.4677  -55.1756 H         1 UNK         0.3079 
    118 H118       32.5668  -51.7646  -53.8249 H         1 UNK         0.0794 
    119 H119       34.5911  -50.4687  -55.7355 H         1 UNK         0.0786 
    120 H120       33.7295  -51.9726  -56.0351 H         1 UNK         0.0786 
    121 H121       34.8809  -51.8769  -54.7133 H         1 UNK         0.0786 
    122 H122       34.4839  -49.7036  -53.3807 H         1 UNK         0.3032 
    123 H123       32.8134  -48.1103  -50.6245 H         1 UNK         0.1094 
    124 H124       35.1645  -48.3775  -49.8682 H         1 UNK         0.0794 
    125 H125       34.3968  -49.9543  -49.9353 H         1 UNK         0.0794 
    126 H126       35.5161  -49.4698  -51.2039 H         1 UNK         0.0794 
    127 H127       33.9880  -47.6322  -53.2060 H         1 UNK         0.3016 
@<TRIPOS>BOND
     1    1    2 1    
     2    1   67 1    
     3    1   68 1    
     4    1   69 1    
     5    2    3 2    
     6    2    4 am   BACKBONE|DICT|INTERRES
     7    4    5 1    
     8    4   70 1    
     9    5    6 1    
    10    5   65 1    
    11    5   71 1    
    12    6    7 1    
    13    6   72 1    
    14    6   73 1    
    15    7    8 1    
    16    8    9 1    
    17    8   74 1    
    18    8   75 1    
    19    9   10 ar   
    20    9   14 ar   
    21   10   11 ar   
    22   10   76 1    
    23   11   12 ar   
    24   11   48 1    
    25   12   13 ar   
    26   12   77 1    
    27   13   14 ar   
    28   13   15 1    
    29   14   78 1    
    30   15   16 1    
    31   15   79 1    
    32   15   80 1    
    33   16   17 1    
    34   17   18 1    
    35   17   81 1    
    36   17   82 1    
    37   18   19 1    
    38   18   22 1    
    39   18   83 1    
    40   19   20 am   BACKBONE|DICT|INTERRES
    41   19   21 2    
    42   20   84 1    
    43   20   85 1    
    44   22   23 am   BACKBONE|DICT|INTERRES
    45   22   86 1    
    46   23   24 2    
    47   23   25 1    
    48   25   26 1    
    49   25   27 1    
    50   25   87 1    
    51   26   88 1    
    52   26   89 1    
    53   26   90 1    
    54   27   28 am   BACKBONE|DICT|INTERRES
    55   27   91 1    
    56   28   29 2    
    57   28   30 1    
    58   30   31 1    
    59   30   32 1    
    60   30   92 1    
    61   31   93 1    
    62   31   94 1    
    63   31   95 1    
    64   32   33 am   BACKBONE|DICT|INTERRES
    65   32   96 1    
    66   33   34 2    
    67   33   35 1    
    68   35   36 1    
    69   35   37 1    
    70   35   97 1    
    71   36   98 1    
    72   36   99 1    
    73   36  100 1    
    74   37   38 am   BACKBONE|DICT|INTERRES
    75   37  101 1    
    76   38   39 2    
    77   38   40 1    
    78   40   41 1    
    79   40   42 1    
    80   40  102 1    
    81   41  103 1    
    82   41  104 1    
    83   41  105 1    
    84   42   43 am   BACKBONE|DICT|INTERRES
    85   42  106 1    
    86   43   44 2    
    87   43   45 1    
    88   45   46 1    
    89   45   49 1    
    90   45  107 1    
    91   46   47 1    
    92   46  108 1    
    93   46  109 1    
    94   47   48 1    
    95   48  110 1    
    96   48  111 1    
    97   49   50 am   BACKBONE|DICT|INTERRES
    98   49  112 1    
    99   50   51 2    
   100   50   52 1    
   101   52   53 1    
   102   52   54 1    
   103   52  113 1    
   104   53  114 1    
   105   53  115 1    
   106   53  116 1    
   107   54   55 am   BACKBONE|DICT|INTERRES
   108   54  117 1    
   109   55   56 2    
   110   55   57 1    
   111   57   58 1    
   112   57   59 1    
   113   57  118 1    
   114   58  119 1    
   115   58  120 1    
   116   58  121 1    
   117   59   60 am   BACKBONE|DICT|INTERRES
   118   59  122 1    
   119   60   61 2    
   120   60   62 1    
   121   62   63 1    
   122   62   64 1    
   123   62  123 1    
   124   63  124 1    
   125   63  125 1    
   126   63  126 1    
   127   64   65 am   BACKBONE|DICT|INTERRES
   128   64  127 1    
   129   65   66 2    
@<TRIPOS>SUBSTRUCTURE
     1 UNK         1 GROUP             0       ****    0 ROOT    
