@<TRIPOS>MOLECULE
3R134
127   129    1
SMALL
USER_CHARGES


@<TRIPOS>ATOM
      1 CA         35.4521  -48.0212  -59.2770 C.3       0 UNK        -0.1968 
      2 C          34.5811  -48.0045  -58.0295 C.2       0 UNK         0.4852 
      3 O          33.8432  -48.9590  -57.7886 O.2       0 UNK        -0.5359 
      4 N          34.6657  -46.9288  -57.2359 N.am      1 UNK        -0.4300 
      5 CA         33.8928  -46.7276  -56.0031 C.3       1 UNK         0.0863 
      6 C6         33.7964  -45.2304  -55.6301 C.3       11 UNK        -0.0953 
      7 S7         32.8476  -44.2665  -56.8521 S.3       11 UNK        -0.2369 
      8 C8         32.4468  -42.7669  -55.8982 C.3       11 UNK         0.0226 
      9 C9         31.4100  -43.0291  -54.8137 C.ar      11 UNK        -0.0699 
     10 C10        31.8131  -43.2893  -53.5001 C.ar      11 UNK        -0.0804 
     11 C11        30.8695  -43.5454  -52.5023 C.ar      11 UNK        -0.0871 
     12 C12        29.5078  -43.4917  -52.8159 C.ar      11 UNK        -0.1008 
     13 C13        29.0911  -43.2294  -54.1244 C.ar      11 UNK        -0.0735 
     14 C14        30.0462  -43.0025  -55.1203 C.ar      11 UNK        -0.0945 
     15 C15        27.6102  -43.1689  -54.4607 C.3       11 UNK         0.0169 
     16 S16        27.0312  -44.6933  -55.2710 S.3       11 UNK        -0.2669 
     17 C17        25.3234  -44.1925  -55.7020 C.3       11 UNK        -0.0850 
     18 CA         25.1329  -43.8398  -57.2011 C.3       10 UNK         0.0855 
     19 C          25.8891  -42.5339  -57.5919 C.2       10 UNK         0.5543 
     20 N          27.0008  -42.6040  -58.3171 N.am      10 UNK        -0.7343 
     21 O          25.4529  -41.4436  -57.2315 O.2       10 UNK        -0.5027 
     22 N          25.4359  -44.9938  -58.0549 N.am      10 UNK        -0.4495 
     23 C          25.1510  -45.0872  -59.3592 C.2       10 UNK         0.4903 
     24 O          24.4084  -44.3007  -59.9488 O.2       10 UNK        -0.4860 
     25 CA         25.8032  -46.2453  -60.1449 C.3       9 UNK         0.0227 
     26 CB         26.3191  -45.7773  -61.5216 C.3       9 UNK        -0.1964 
     27 N          26.8643  -46.9648  -59.4227 N.am      9 UNK        -0.4231 
     28 C          28.0145  -46.4892  -58.9236 C.2       9 UNK         0.5014 
     29 O          28.3424  -45.3020  -58.9868 O.2       9 UNK        -0.5270 
     30 CA         28.9252  -47.5136  -58.2105 C.3       8 UNK         0.0284 
     31 CB         30.1651  -46.8565  -57.5771 C.3       8 UNK        -0.1977 
     32 N          28.2405  -48.3095  -57.1803 N.am      8 UNK        -0.4342 
     33 C          27.3468  -49.2858  -57.3988 C.2       8 UNK         0.5039 
     34 O          26.9524  -49.5913  -58.5256 O.2       8 UNK        -0.5547 
     35 CA         26.7754  -50.0519  -56.1951 C.3       7 UNK         0.0281 
     36 CB         27.5222  -51.3814  -55.9920 C.3       7 UNK        -0.1963 
     37 N          26.7940  -49.2907  -54.9410 N.am      7 UNK        -0.4444 
     38 C          25.7586  -49.2102  -54.0900 C.2       7 UNK         0.5104 
     39 O          24.6497  -49.6921  -54.3272 O.2       7 UNK        -0.5100 
     40 CA         25.9813  -48.5073  -52.7352 C.3       6 UNK         0.0396 
     41 CB         25.4228  -49.3421  -51.5682 C.3       6 UNK        -0.1801 
     42 N          27.3984  -48.2377  -52.4839 N.am      6 UNK        -0.4747 
     43 C          27.9264  -47.0302  -52.2476 C.2       6 UNK         0.5012 
     44 O          27.2433  -46.0217  -52.0681 O.2       6 UNK        -0.5003 
     45 CA         29.4700  -46.9067  -52.2017 C.3       5 UNK         0.0782 
     46 C46        29.9355  -46.3330  -50.8391 C.3       11 UNK        -0.0868 
     47 S47        31.6372  -45.6813  -50.9082 S.3       11 UNK        -0.2515 
     48 C48        31.3299  -43.8915  -51.0931 C.3       11 UNK         0.0199 
     49 N          30.2051  -48.1329  -52.5560 N.am      5 UNK        -0.4607 
     50 C          30.1962  -48.7194  -53.7602 C.2       4 UNK         0.5031 
     51 O          29.4941  -48.3210  -54.6898 O.2       4 UNK        -0.5119 
     52 CA         31.0536  -49.9809  -53.9453 C.3       4 UNK         0.0263 
     53 CB         31.5105  -50.1693  -55.4034 C.3       4 UNK        -0.1967 
     54 N          32.2272  -49.9672  -53.0706 N.am      4 UNK        -0.4237 
     55 C          32.6209  -50.9805  -52.2863 C.2       3 UNK         0.4908 
     56 O          31.9848  -52.0287  -52.1604 O.2       3 UNK        -0.5102 
     57 CA         33.9377  -50.7909  -51.5004 C.3       3 UNK         0.0241 
     58 CB         34.6039  -52.1297  -51.1146 C.3       3 UNK        -0.1971 
     59 N          34.8978  -49.8998  -52.1664 N.am      3 UNK        -0.4139 
     60 C          35.4745  -50.0722  -53.3662 C.2       2 UNK         0.5016 
     61 O          35.3308  -51.0689  -54.0771 O.2       2 UNK        -0.5319 
     62 CA         36.3231  -48.8925  -53.8777 C.3       2 UNK         0.0286 
     63 CB         37.6758  -49.3748  -54.4302 C.3       2 UNK        -0.1963 
     64 N          35.6340  -48.1149  -54.9139 N.am      2 UNK        -0.4790 
     65 C          34.4270  -47.5373  -54.8010 C.2       1 UNK         0.5024 
     66 O          33.7366  -47.6035  -53.7822 O.2       1 UNK        -0.4888 
     67 H67        34.8290  -48.1024  -60.1672 H         1 UNK         0.0892 
     68 H68        36.0550  -47.1177  -59.3671 H         1 UNK         0.0892 
     69 H69        36.1254  -48.8776  -59.2530 H         1 UNK         0.0892 
     70 H70        35.2761  -46.1666  -57.4953 H         1 UNK         0.3107 
     71 H71        32.8781  -47.0878  -56.1775 H         1 UNK         0.0773 
     72 H72        33.3038  -45.1287  -54.6646 H         1 UNK         0.0680 
     73 H73        34.7876  -44.7873  -55.5190 H         1 UNK         0.0680 
     74 H74        33.3610  -42.3583  -55.4648 H         1 UNK         0.0650 
     75 H75        32.0706  -42.0071  -56.5848 H         1 UNK         0.0650 
     76 H76        32.8664  -43.3149  -53.2564 H         1 UNK         0.1397 
     77 H77        28.7698  -43.6770  -52.0473 H         1 UNK         0.1363 
     78 H78        29.7256  -42.8064  -56.1348 H         1 UNK         0.1355 
     79 H79        27.0217  -43.0013  -53.5571 H         1 UNK         0.0707 
     80 H80        27.4274  -42.3123  -55.1104 H         1 UNK         0.0707 
     81 H81        24.6598  -45.0171  -55.4374 H         1 UNK         0.1034 
     82 H82        25.0069  -43.3596  -55.0712 H         1 UNK         0.1034 
     83 H83        24.0726  -43.6215  -57.3422 H         1 UNK         0.0482 
     84 H84        27.3854  -43.5055  -58.5792 H         1 UNK         0.3460 
     85 H85        27.4815  -41.7568  -58.5719 H         1 UNK         0.3460 
     86 H86        26.0801  -45.6634  -57.6616 H         1 UNK         0.2989 
     87 H87        25.0111  -46.9752  -60.3171 H         1 UNK         0.0559 
     88 H88        25.5109  -45.3640  -62.1264 H         1 UNK         0.0848 
     89 H89        26.7514  -46.6035  -62.0859 H         1 UNK         0.0848 
     90 H90        27.0803  -45.0023  -61.4247 H         1 UNK         0.0848 
     91 H91        26.7021  -47.9614  -59.2730 H         1 UNK         0.3144 
     92 H92        29.2797  -48.2005  -58.9817 H         1 UNK         0.0727 
     93 H93        29.8928  -46.1663  -56.7767 H         1 UNK         0.0790 
     94 H94        30.7373  -46.2930  -58.3152 H         1 UNK         0.0790 
     95 H95        30.8331  -47.6086  -57.1593 H         1 UNK         0.0790 
     96 H96        28.5701  -48.1545  -56.2300 H         1 UNK         0.3215 
     97 H97        25.7447  -50.2901  -56.4669 H         1 UNK         0.0863 
     98 H98        27.0309  -51.9979  -55.2391 H         1 UNK         0.0808 
     99 H99        28.5516  -51.2223  -55.6725 H         1 UNK         0.0808 
    100 H100       27.5509  -51.9617  -56.9154 H         1 UNK         0.0808 
    101 H101       27.6654  -48.8277  -54.7009 H         1 UNK         0.3118 
    102 H102       25.4181  -47.5734  -52.7854 H         1 UNK         0.0546 
    103 H103       25.9100  -50.3154  -51.4995 H         1 UNK         0.0828 
    104 H104       24.3529  -49.5193  -51.6853 H         1 UNK         0.0828 
    105 H105       25.5597  -48.8303  -50.6156 H         1 UNK         0.0828 
    106 H106       28.0293  -49.0208  -52.5768 H         1 UNK         0.3005 
    107 H107       29.7092  -46.1790  -52.9796 H         1 UNK         0.1257 
    108 H108       29.2789  -45.5330  -50.4923 H         1 UNK         0.0775 
    109 H109       29.8887  -47.1031  -50.0673 H         1 UNK         0.0775 
    110 H110       30.5995  -43.5571  -50.3548 H         1 UNK         0.0840 
    111 H111       32.2518  -43.3539  -50.8659 H         1 UNK         0.0840 
    112 H112       30.7978  -48.5187  -51.8357 H         1 UNK         0.2987 
    113 H113       30.4025  -50.8185  -53.6878 H         1 UNK         0.0785 
    114 H114       30.6654  -50.2172  -56.0903 H         1 UNK         0.0798 
    115 H115       32.0776  -51.0925  -55.5239 H         1 UNK         0.0798 
    116 H116       32.1451  -49.3474  -55.7302 H         1 UNK         0.0798 
    117 H117       32.8079  -49.1325  -53.1299 H         1 UNK         0.3079 
    118 H118       33.6564  -50.2892  -50.5734 H         1 UNK         0.0794 
    119 H119       35.5225  -51.9682  -50.5507 H         1 UNK         0.0786 
    120 H120       34.8498  -52.7277  -51.9927 H         1 UNK         0.0786 
    121 H121       33.9435  -52.7306  -50.4881 H         1 UNK         0.0786 
    122 H122       35.0592  -49.0202  -51.6942 H         1 UNK         0.3032 
    123 H123       36.5261  -48.2202  -53.0412 H         1 UNK         0.1094 
    124 H124       38.3160  -48.5360  -54.7045 H         1 UNK         0.0794 
    125 H125       38.2145  -49.9613  -53.6846 H         1 UNK         0.0794 
    126 H126       37.5516  -50.0051  -55.3119 H         1 UNK         0.0794 
    127 H127       36.1111  -48.0264  -55.7988 H         1 UNK         0.3016 
@<TRIPOS>BOND
     1    1    2 1    
     2    1   67 1    
     3    1   68 1    
     4    1   69 1    
     5    2    3 2    
     6    2    4 am   BACKBONE|DICT|INTERRES
     7    4    5 1    
     8    4   70 1    
     9    5    6 1    
    10    5   65 1    
    11    5   71 1    
    12    6    7 1    
    13    6   72 1    
    14    6   73 1    
    15    7    8 1    
    16    8    9 1    
    17    8   74 1    
    18    8   75 1    
    19    9   10 ar   
    20    9   14 ar   
    21   10   11 ar   
    22   10   76 1    
    23   11   12 ar   
    24   11   48 1    
    25   12   13 ar   
    26   12   77 1    
    27   13   14 ar   
    28   13   15 1    
    29   14   78 1    
    30   15   16 1    
    31   15   79 1    
    32   15   80 1    
    33   16   17 1    
    34   17   18 1    
    35   17   81 1    
    36   17   82 1    
    37   18   19 1    
    38   18   22 1    
    39   18   83 1    
    40   19   20 am   BACKBONE|DICT|INTERRES
    41   19   21 2    
    42   20   84 1    
    43   20   85 1    
    44   22   23 am   BACKBONE|DICT|INTERRES
    45   22   86 1    
    46   23   24 2    
    47   23   25 1    
    48   25   26 1    
    49   25   27 1    
    50   25   87 1    
    51   26   88 1    
    52   26   89 1    
    53   26   90 1    
    54   27   28 am   BACKBONE|DICT|INTERRES
    55   27   91 1    
    56   28   29 2    
    57   28   30 1    
    58   30   31 1    
    59   30   32 1    
    60   30   92 1    
    61   31   93 1    
    62   31   94 1    
    63   31   95 1    
    64   32   33 am   BACKBONE|DICT|INTERRES
    65   32   96 1    
    66   33   34 2    
    67   33   35 1    
    68   35   36 1    
    69   35   37 1    
    70   35   97 1    
    71   36   98 1    
    72   36   99 1    
    73   36  100 1    
    74   37   38 am   BACKBONE|DICT|INTERRES
    75   37  101 1    
    76   38   39 2    
    77   38   40 1    
    78   40   41 1    
    79   40   42 1    
    80   40  102 1    
    81   41  103 1    
    82   41  104 1    
    83   41  105 1    
    84   42   43 am   BACKBONE|DICT|INTERRES
    85   42  106 1    
    86   43   44 2    
    87   43   45 1    
    88   45   46 1    
    89   45   49 1    
    90   45  107 1    
    91   46   47 1    
    92   46  108 1    
    93   46  109 1    
    94   47   48 1    
    95   48  110 1    
    96   48  111 1    
    97   49   50 am   BACKBONE|DICT|INTERRES
    98   49  112 1    
    99   50   51 2    
   100   50   52 1    
   101   52   53 1    
   102   52   54 1    
   103   52  113 1    
   104   53  114 1    
   105   53  115 1    
   106   53  116 1    
   107   54   55 am   BACKBONE|DICT|INTERRES
   108   54  117 1    
   109   55   56 2    
   110   55   57 1    
   111   57   58 1    
   112   57   59 1    
   113   57  118 1    
   114   58  119 1    
   115   58  120 1    
   116   58  121 1    
   117   59   60 am   BACKBONE|DICT|INTERRES
   118   59  122 1    
   119   60   61 2    
   120   60   62 1    
   121   62   63 1    
   122   62   64 1    
   123   62  123 1    
   124   63  124 1    
   125   63  125 1    
   126   63  126 1    
   127   64   65 am   BACKBONE|DICT|INTERRES
   128   64  127 1    
   129   65   66 2    
@<TRIPOS>SUBSTRUCTURE
     1 UNK         1 GROUP             0       ****    0 ROOT    
