@<TRIPOS>MOLECULE
3R134
127   129    1
SMALL
USER_CHARGES


@<TRIPOS>ATOM
      1 CA         36.9250  -48.2649  -54.4872 C.3       0 UNK        -0.1968 
      2 C          37.4200  -46.9730  -53.8415 C.2       0 UNK         0.4852 
      3 O          38.6151  -46.8510  -53.5781 O.2       0 UNK        -0.5359 
      4 N          36.5565  -45.9833  -53.5679 N.am      1 UNK        -0.4300 
      5 CA         35.1031  -45.9884  -53.7872 C.3       1 UNK         0.0863 
      6 C6         34.5573  -44.5584  -54.0533 C.3       11 UNK        -0.0953 
      7 S7         34.4442  -44.2113  -55.8403 S.3       11 UNK        -0.2369 
      8 C8         32.9159  -45.0996  -56.2950 C.3       11 UNK         0.0226 
      9 C9         31.6614  -44.3199  -55.9310 C.ar      11 UNK        -0.0699 
     10 C10        31.0727  -44.4743  -54.6734 C.ar      11 UNK        -0.0804 
     11 C11        29.9115  -43.7733  -54.3380 C.ar      11 UNK        -0.0871 
     12 C12        29.3227  -42.9279  -55.2836 C.ar      11 UNK        -0.1008 
     13 C13        29.9016  -42.7653  -56.5462 C.ar      11 UNK        -0.0735 
     14 C14        31.0741  -43.4585  -56.8617 C.ar      11 UNK        -0.0945 
     15 C15        29.2679  -41.8378  -57.5704 C.3       11 UNK         0.0169 
     16 S16        28.3141  -42.7862  -58.7947 S.3       11 UNK        -0.2669 
     17 C17        26.6950  -41.9469  -58.7444 C.3       11 UNK        -0.0850 
     18 CA         25.7487  -42.4925  -57.6419 C.3       10 UNK         0.0855 
     19 C          24.4196  -41.6811  -57.6250 C.2       10 UNK         0.5543 
     20 N          23.2798  -42.2608  -57.9817 N.am      10 UNK        -0.7343 
     21 O          24.4272  -40.5015  -57.2817 O.2       10 UNK        -0.5027 
     22 N          25.5925  -43.9548  -57.7258 N.am      10 UNK        -0.4495 
     23 C          25.0622  -44.7385  -56.7805 C.2       10 UNK         0.4903 
     24 O          24.6172  -44.3174  -55.7126 O.2       10 UNK        -0.4860 
     25 CA         25.0232  -46.2512  -57.0608 C.3       9 UNK         0.0227 
     26 CB         23.8799  -46.6202  -58.0263 C.3       9 UNK        -0.1964 
     27 N          26.3098  -46.8178  -57.4878 N.am      9 UNK        -0.4231 
     28 C          26.9838  -46.6234  -58.6316 C.2       9 UNK         0.5014 
     29 O          26.5841  -45.9101  -59.5534 O.2       9 UNK        -0.5270 
     30 CA         28.3403  -47.3368  -58.7733 C.3       8 UNK         0.0284 
     31 CB         29.4670  -46.4780  -58.1758 C.3       8 UNK        -0.1977 
     32 N          28.3716  -48.6713  -58.1682 N.am      8 UNK        -0.4342 
     33 C          27.6887  -49.7333  -58.6213 C.2       8 UNK         0.5039 
     34 O          26.9327  -49.7009  -59.5929 O.2       8 UNK        -0.5547 
     35 CA         27.8875  -51.0591  -57.8712 C.3       7 UNK         0.0281 
     36 CB         29.1989  -51.7385  -58.3007 C.3       7 UNK        -0.1963 
     37 N          27.8931  -50.8523  -56.4234 N.am      7 UNK        -0.4444 
     38 C          26.8014  -50.8981  -55.6477 C.2       7 UNK         0.5104 
     39 O          25.6813  -51.2049  -56.0569 O.2       7 UNK        -0.5100 
     40 CA         26.9794  -50.5339  -54.1608 C.3       6 UNK         0.0396 
     41 CB         27.1851  -51.8030  -53.3197 C.3       6 UNK        -0.1801 
     42 N          28.0816  -49.5991  -53.9110 N.am      6 UNK        -0.4747 
     43 C          28.1058  -48.3288  -54.3476 C.2       6 UNK         0.5012 
     44 O          27.1933  -47.8231  -54.9990 O.2       6 UNK        -0.5003 
     45 CA         29.3840  -47.5024  -54.0771 C.3       5 UNK         0.0782 
     46 C46        29.2839  -46.7355  -52.7351 C.3       11 UNK        -0.0868 
     47 S47        28.1544  -45.3029  -52.8239 S.3       11 UNK        -0.2515 
     48 C48        29.3121  -43.9047  -52.9452 C.3       11 UNK         0.0199 
     49 N          30.6133  -48.3011  -54.1411 N.am      5 UNK        -0.4607 
     50 C          30.9764  -49.1095  -55.1470 C.2       4 UNK         0.5031 
     51 O          30.3629  -49.1868  -56.2113 O.2       4 UNK        -0.5119 
     52 CA         32.1772  -50.0425  -54.9091 C.3       4 UNK         0.0263 
     53 CB         33.4333  -49.4791  -55.5889 C.3       4 UNK        -0.1967 
     54 N          32.4654  -50.3107  -53.4943 N.am      4 UNK        -0.4237 
     55 C          31.6318  -50.8598  -52.5986 C.2       3 UNK         0.4908 
     56 O          30.4874  -51.2237  -52.8712 O.2       3 UNK        -0.5102 
     57 CA         32.1238  -50.9724  -51.1412 C.3       3 UNK         0.0241 
     58 CB         32.9298  -52.2680  -50.9228 C.3       3 UNK        -0.1971 
     59 N          32.8441  -49.7830  -50.6520 N.am      3 UNK        -0.4139 
     60 C          34.0297  -49.3065  -51.0569 C.2       2 UNK         0.5016 
     61 O          34.7560  -49.8710  -51.8790 O.2       2 UNK        -0.5319 
     62 CA         34.4519  -47.9338  -50.5034 C.3       2 UNK         0.0286 
     63 CB         35.5026  -48.0982  -49.3942 C.3       2 UNK        -0.1963 
     64 N          34.9987  -47.0844  -51.5673 N.am      2 UNK        -0.4790 
     65 C          34.3209  -46.7002  -52.6607 C.2       1 UNK         0.5024 
     66 O          33.1185  -46.9211  -52.8205 O.2       1 UNK        -0.4888 
     67 H67        36.1309  -48.7231  -53.8998 H         1 UNK         0.0892 
     68 H68        37.7358  -48.9894  -54.5612 H         1 UNK         0.0892 
     69 H69        36.5565  -48.0766  -55.4952 H         1 UNK         0.0892 
     70 H70        36.9225  -45.1378  -53.1533 H         1 UNK         0.3107 
     71 H71        34.9042  -46.5907  -54.6727 H         1 UNK         0.0773 
     72 H72        35.2015  -43.8039  -53.5990 H         1 UNK         0.0680 
     73 H73        33.5793  -44.3854  -53.6068 H         1 UNK         0.0680 
     74 H74        32.9313  -45.2861  -57.3699 H         1 UNK         0.0650 
     75 H75        32.8946  -46.0826  -55.8227 H         1 UNK         0.0650 
     76 H76        31.5189  -45.1436  -53.9528 H         1 UNK         0.1397 
     77 H77        28.4180  -42.3904  -55.0337 H         1 UNK         0.1363 
     78 H78        31.5214  -43.3362  -57.8387 H         1 UNK         0.1355 
     79 H79        30.0425  -41.2676  -58.0854 H         1 UNK         0.0707 
     80 H80        28.6324  -41.1056  -57.0700 H         1 UNK         0.0707 
     81 H81        26.2309  -42.0682  -59.7251 H         1 UNK         0.1034 
     82 H82        26.8559  -40.8735  -58.6250 H         1 UNK         0.1034 
     83 H83        26.2264  -42.2928  -56.6808 H         1 UNK         0.0482 
     84 H84        23.2684  -43.2280  -58.2623 H         1 UNK         0.3460 
     85 H85        22.4251  -41.7269  -57.9652 H         1 UNK         0.3460 
     86 H86        25.9595  -44.4057  -58.5598 H         1 UNK         0.2989 
     87 H87        24.8052  -46.7365  -56.1080 H         1 UNK         0.0559 
     88 H88        23.8159  -47.6991  -58.1678 H         1 UNK         0.0848 
     89 H89        24.0039  -46.1615  -59.0075 H         1 UNK         0.0848 
     90 H90        22.9184  -46.2871  -57.6335 H         1 UNK         0.0848 
     91 H91        26.7661  -47.3670  -56.7621 H         1 UNK         0.3144 
     92 H92        28.5390  -47.4572  -59.8403 H         1 UNK         0.0727 
     93 H93        30.4342  -46.9761  -58.2456 H         1 UNK         0.0790 
     94 H94        29.2851  -46.2412  -57.1279 H         1 UNK         0.0790 
     95 H95        29.5535  -45.5303  -58.7079 H         1 UNK         0.0790 
     96 H96        29.0248  -48.8097  -57.3991 H         1 UNK         0.3215 
     97 H97        27.0641  -51.7240  -58.1425 H         1 UNK         0.0863 
     98 H98        29.3248  -52.7021  -57.8070 H         1 UNK         0.0808 
     99 H99        30.0724  -51.1279  -58.0700 H         1 UNK         0.0808 
    100 H100       29.2062  -51.9225  -59.3759 H         1 UNK         0.0808 
    101 H101       28.7649  -50.5408  -56.0129 H         1 UNK         0.3118 
    102 H102       26.0566  -50.0536  -53.8286 H         1 UNK         0.0546 
    103 H103       26.3479  -52.4916  -53.4416 H         1 UNK         0.0828 
    104 H104       27.2603  -51.5695  -52.2577 H         1 UNK         0.0828 
    105 H105       28.0905  -52.3373  -53.6105 H         1 UNK         0.0828 
    106 H106       28.8933  -49.9731  -53.4292 H         1 UNK         0.3005 
    107 H107       29.4589  -46.7730  -54.8843 H         1 UNK         0.1257 
    108 H108       30.2675  -46.3827  -52.4225 H         1 UNK         0.0775 
    109 H109       28.9497  -47.3955  -51.9320 H         1 UNK         0.0775 
    110 H110       28.7763  -42.9896  -52.6879 H         1 UNK         0.0840 
    111 H111       30.1008  -44.0066  -52.1980 H         1 UNK         0.0840 
    112 H112       31.2213  -48.2555  -53.3346 H         1 UNK         0.2987 
    113 H113       31.9345  -50.9991  -55.3760 H         1 UNK         0.0785 
    114 H114       33.7261  -48.5255  -55.1539 H         1 UNK         0.0798 
    115 H115       33.2611  -49.3133  -56.6535 H         1 UNK         0.0798 
    116 H116       34.2764  -50.1644  -55.4998 H         1 UNK         0.0798 
    117 H117       33.3918  -50.0623  -53.1548 H         1 UNK         0.3079 
    118 H118       31.2283  -51.0434  -50.5214 H         1 UNK         0.0794 
    119 H119       33.8291  -52.3034  -51.5381 H         1 UNK         0.0786 
    120 H120       32.3312  -53.1433  -51.1787 H         1 UNK         0.0786 
    121 H121       33.2320  -52.3757  -49.8811 H         1 UNK         0.0786 
    122 H122       32.3253  -49.2282  -49.9846 H         1 UNK         0.3032 
    123 H123       33.5763  -47.4291  -50.0888 H         1 UNK         0.1094 
    124 H124       36.4062  -48.5853  -49.7637 H         1 UNK         0.0794 
    125 H125       35.7886  -47.1350  -48.9710 H         1 UNK         0.0794 
    126 H126       35.1154  -48.7078  -48.5765 H         1 UNK         0.0794 
    127 H127       35.9870  -46.8827  -51.5232 H         1 UNK         0.3016 
@<TRIPOS>BOND
     1    1    2 1    
     2    1   67 1    
     3    1   68 1    
     4    1   69 1    
     5    2    3 2    
     6    2    4 am   BACKBONE|DICT|INTERRES
     7    4    5 1    
     8    4   70 1    
     9    5    6 1    
    10    5   65 1    
    11    5   71 1    
    12    6    7 1    
    13    6   72 1    
    14    6   73 1    
    15    7    8 1    
    16    8    9 1    
    17    8   74 1    
    18    8   75 1    
    19    9   10 ar   
    20    9   14 ar   
    21   10   11 ar   
    22   10   76 1    
    23   11   12 ar   
    24   11   48 1    
    25   12   13 ar   
    26   12   77 1    
    27   13   14 ar   
    28   13   15 1    
    29   14   78 1    
    30   15   16 1    
    31   15   79 1    
    32   15   80 1    
    33   16   17 1    
    34   17   18 1    
    35   17   81 1    
    36   17   82 1    
    37   18   19 1    
    38   18   22 1    
    39   18   83 1    
    40   19   20 am   BACKBONE|DICT|INTERRES
    41   19   21 2    
    42   20   84 1    
    43   20   85 1    
    44   22   23 am   BACKBONE|DICT|INTERRES
    45   22   86 1    
    46   23   24 2    
    47   23   25 1    
    48   25   26 1    
    49   25   27 1    
    50   25   87 1    
    51   26   88 1    
    52   26   89 1    
    53   26   90 1    
    54   27   28 am   BACKBONE|DICT|INTERRES
    55   27   91 1    
    56   28   29 2    
    57   28   30 1    
    58   30   31 1    
    59   30   32 1    
    60   30   92 1    
    61   31   93 1    
    62   31   94 1    
    63   31   95 1    
    64   32   33 am   BACKBONE|DICT|INTERRES
    65   32   96 1    
    66   33   34 2    
    67   33   35 1    
    68   35   36 1    
    69   35   37 1    
    70   35   97 1    
    71   36   98 1    
    72   36   99 1    
    73   36  100 1    
    74   37   38 am   BACKBONE|DICT|INTERRES
    75   37  101 1    
    76   38   39 2    
    77   38   40 1    
    78   40   41 1    
    79   40   42 1    
    80   40  102 1    
    81   41  103 1    
    82   41  104 1    
    83   41  105 1    
    84   42   43 am   BACKBONE|DICT|INTERRES
    85   42  106 1    
    86   43   44 2    
    87   43   45 1    
    88   45   46 1    
    89   45   49 1    
    90   45  107 1    
    91   46   47 1    
    92   46  108 1    
    93   46  109 1    
    94   47   48 1    
    95   48  110 1    
    96   48  111 1    
    97   49   50 am   BACKBONE|DICT|INTERRES
    98   49  112 1    
    99   50   51 2    
   100   50   52 1    
   101   52   53 1    
   102   52   54 1    
   103   52  113 1    
   104   53  114 1    
   105   53  115 1    
   106   53  116 1    
   107   54   55 am   BACKBONE|DICT|INTERRES
   108   54  117 1    
   109   55   56 2    
   110   55   57 1    
   111   57   58 1    
   112   57   59 1    
   113   57  118 1    
   114   58  119 1    
   115   58  120 1    
   116   58  121 1    
   117   59   60 am   BACKBONE|DICT|INTERRES
   118   59  122 1    
   119   60   61 2    
   120   60   62 1    
   121   62   63 1    
   122   62   64 1    
   123   62  123 1    
   124   63  124 1    
   125   63  125 1    
   126   63  126 1    
   127   64   65 am   BACKBONE|DICT|INTERRES
   128   64  127 1    
   129   65   66 2    
@<TRIPOS>SUBSTRUCTURE
     1 UNK         1 GROUP             0       ****    0 ROOT    
