@<TRIPOS>MOLECULE
3R134
127   129    1
SMALL
USER_CHARGES


@<TRIPOS>ATOM
      1 CA         32.4588  -48.8265  -58.5854 C.3       0 UNK        -0.1968 
      2 C          32.7869  -48.3138  -57.1914 C.2       0 UNK         0.4852 
      3 O          32.6841  -49.0721  -56.2278 O.2       0 UNK        -0.5359 
      4 N          33.1666  -47.0332  -57.0815 N.am      1 UNK        -0.4300 
      5 CA         33.4722  -46.3279  -55.8300 C.3       1 UNK         0.0863 
      6 C6         33.8284  -44.8442  -56.0799 C.3       11 UNK        -0.0953 
      7 S7         32.4715  -43.9334  -56.8879 S.3       11 UNK        -0.2369 
      8 C8         32.1549  -42.5795  -55.7141 C.3       11 UNK         0.0226 
      9 C9         31.2127  -42.9759  -54.5839 C.ar      11 UNK        -0.0699 
     10 C10        31.7172  -43.4444  -53.3658 C.ar      11 UNK        -0.0804 
     11 C11        30.8569  -43.7039  -52.2934 C.ar      11 UNK        -0.0871 
     12 C12        29.4811  -43.5063  -52.4552 C.ar      11 UNK        -0.1008 
     13 C13        28.9603  -43.0535  -53.6712 C.ar      11 UNK        -0.0735 
     14 C14        29.8333  -42.7935  -54.7320 C.ar      11 UNK        -0.0945 
     15 C15        27.4672  -42.7705  -53.8011 C.3       11 UNK         0.0169 
     16 S16        26.5819  -44.0371  -54.7655 S.3       11 UNK        -0.2669 
     17 C17        26.4373  -43.2140  -56.3935 C.3       11 UNK        -0.0850 
     18 CA         26.2181  -44.2040  -57.5797 C.3       10 UNK         0.0855 
     19 C          26.0660  -43.4879  -58.9558 C.2       10 UNK         0.5543 
     20 N          25.2542  -42.4408  -59.0307 N.am      10 UNK        -0.7343 
     21 O          26.6391  -43.8821  -59.9700 O.2       10 UNK        -0.5027 
     22 N          27.1943  -45.3023  -57.5926 N.am      10 UNK        -0.4495 
     23 C          28.5272  -45.1800  -57.6478 C.2       10 UNK         0.4903 
     24 O          29.1181  -44.1123  -57.8060 O.2       10 UNK        -0.4860 
     25 CA         29.3431  -46.4681  -57.4469 C.3       9 UNK         0.0227 
     26 CB         29.6776  -46.6294  -55.9575 C.3       9 UNK        -0.1964 
     27 N          28.6357  -47.6634  -57.9137 N.am      9 UNK        -0.4231 
     28 C          28.4901  -47.9816  -59.2083 C.2       9 UNK         0.5014 
     29 O          29.0339  -47.3674  -60.1270 O.2       9 UNK        -0.5270 
     30 CA         27.5893  -49.1826  -59.5534 C.3       8 UNK         0.0284 
     31 CB         28.4459  -50.4381  -59.7877 C.3       8 UNK        -0.1977 
     32 N          26.5605  -49.4854  -58.5536 N.am      8 UNK        -0.4342 
     33 C          25.5762  -48.6652  -58.1593 C.2       8 UNK         0.5039 
     34 O          25.4195  -47.5222  -58.5887 O.2       8 UNK        -0.5547 
     35 CA         24.6246  -49.1832  -57.0645 C.3       7 UNK         0.0281 
     36 CB         24.6609  -50.7178  -56.8754 C.3       7 UNK        -0.1963 
     37 N          24.8489  -48.5103  -55.7787 N.am      7 UNK        -0.4444 
     38 C          26.0065  -48.4301  -55.1082 C.2       7 UNK         0.5104 
     39 O          27.0854  -48.8619  -55.5331 O.2       7 UNK        -0.5100 
     40 CA         25.9465  -47.7786  -53.7185 C.3       6 UNK         0.0396 
     41 CB         25.1138  -48.6261  -52.7363 C.3       6 UNK        -0.1801 
     42 N          27.3177  -47.6639  -53.2437 N.am      6 UNK        -0.4747 
     43 C          27.7873  -46.9259  -52.2326 C.2       6 UNK         0.5012 
     44 O          27.0767  -46.2432  -51.4938 O.2       6 UNK        -0.5003 
     45 CA         29.3128  -46.9986  -52.0235 C.3       5 UNK         0.0782 
     46 C46        29.8035  -46.4290  -50.6659 C.3       11 UNK        -0.0868 
     47 S47        31.5573  -45.9313  -50.7526 S.3       11 UNK        -0.2515 
     48 C48        31.4196  -44.1236  -50.9389 C.3       11 UNK         0.0199 
     49 N          29.7428  -48.3847  -52.2426 N.am      5 UNK        -0.4607 
     50 C          30.7902  -48.7472  -52.9842 C.2       4 UNK         0.5031 
     51 O          31.5868  -47.9464  -53.4753 O.2       4 UNK        -0.5119 
     52 CA         30.9410  -50.2506  -53.2554 C.3       4 UNK         0.0263 
     53 CB         29.9221  -50.7158  -54.3114 C.3       4 UNK        -0.1967 
     54 N          32.2864  -50.4841  -53.7617 N.am      4 UNK        -0.4237 
     55 C          33.1534  -51.4031  -53.3252 C.2       3 UNK         0.4908 
     56 O          32.8650  -52.3165  -52.5509 O.2       3 UNK        -0.5102 
     57 CA         34.6097  -51.2296  -53.7915 C.3       3 UNK         0.0241 
     58 CB         34.8111  -51.7744  -55.2149 C.3       3 UNK        -0.1971 
     59 N          35.0084  -49.8202  -53.7325 N.am      3 UNK        -0.4139 
     60 C          35.2203  -49.1450  -52.5936 C.2       2 UNK         0.5016 
     61 O          35.3000  -49.6863  -51.4899 O.2       2 UNK        -0.5319 
     62 CA         35.3133  -47.6103  -52.6686 C.3       2 UNK         0.0286 
     63 CB         36.7750  -47.1310  -52.7723 C.3       2 UNK        -0.1963 
     64 N          34.4507  -47.0083  -53.6962 N.am      2 UNK        -0.4790 
     65 C          34.5977  -47.0107  -55.0274 C.2       1 UNK         0.5024 
     66 O          35.5557  -47.5173  -55.6159 O.2       1 UNK        -0.4888 
     67 H67        31.4492  -49.2362  -58.6024 H         1 UNK         0.0892 
     68 H68        32.5146  -48.0374  -59.3352 H         1 UNK         0.0892 
     69 H69        33.1535  -49.6172  -58.8670 H         1 UNK         0.0892 
     70 H70        33.2434  -46.4682  -57.9143 H         1 UNK         0.3107 
     71 H71        32.5654  -46.3567  -55.2257 H         1 UNK         0.0773 
     72 H72        34.0836  -44.3495  -55.1415 H         1 UNK         0.0680 
     73 H73        34.7145  -44.7638  -56.7127 H         1 UNK         0.0680 
     74 H74        31.7197  -41.7473  -56.2693 H         1 UNK         0.0650 
     75 H75        33.0979  -42.2044  -55.3139 H         1 UNK         0.0650 
     76 H76        32.7834  -43.5694  -53.2384 H         1 UNK         0.1397 
     77 H77        28.8121  -43.6799  -51.6238 H         1 UNK         0.1363 
     78 H78        29.4446  -42.4203  -55.6687 H         1 UNK         0.1355 
     79 H79        27.3158  -41.7848  -54.2433 H         1 UNK         0.0707 
     80 H80        27.0098  -42.7225  -52.8116 H         1 UNK         0.0707 
     81 H81        27.3247  -42.6068  -56.5732 H         1 UNK         0.1034 
     82 H82        25.6064  -42.5110  -56.3230 H         1 UNK         0.1034 
     83 H83        25.2607  -44.7001  -57.4165 H         1 UNK         0.0482 
     84 H84        24.7404  -42.1123  -58.2287 H         1 UNK         0.3460 
     85 H85        25.1384  -41.9791  -59.9194 H         1 UNK         0.3460 
     86 H86        26.7895  -46.2299  -57.5993 H         1 UNK         0.2989 
     87 H87        30.2790  -46.3711  -58.0010 H         1 UNK         0.0559 
     88 H88        28.7763  -46.6556  -55.3474 H         1 UNK         0.0848 
     89 H89        30.2768  -45.7910  -55.6007 H         1 UNK         0.0848 
     90 H90        30.2426  -47.5415  -55.7711 H         1 UNK         0.0848 
     91 H91        28.1528  -48.2180  -57.2135 H         1 UNK         0.3144 
     92 H92        27.0741  -48.9397  -60.4850 H         1 UNK         0.0727 
     93 H93        27.8394  -51.2755  -60.1333 H         1 UNK         0.0790 
     94 H94        28.9640  -50.7484  -58.8792 H         1 UNK         0.0790 
     95 H95        29.2058  -50.2561  -60.5492 H         1 UNK         0.0790 
     96 H96        26.6231  -50.3870  -58.1032 H         1 UNK         0.3215 
     97 H97        23.6174  -48.9157  -57.3887 H         1 UNK         0.0863 
     98 H98        25.6152  -51.0680  -56.4798 H         1 UNK         0.0808 
     99 H99        24.4764  -51.2375  -57.8168 H         1 UNK         0.0808 
    100 H100       23.8854  -51.0401  -56.1804 H         1 UNK         0.0808 
    101 H101       24.0313  -48.0830  -55.3660 H         1 UNK         0.3118 
    102 H102       25.5146  -46.7811  -53.8157 H         1 UNK         0.0546 
    103 H103       25.0856  -48.1764  -51.7439 H         1 UNK         0.0828 
    104 H104       25.5178  -49.6341  -52.6342 H         1 UNK         0.0828 
    105 H105       24.0801  -48.7211  -53.0699 H         1 UNK         0.0828 
    106 H106       27.9700  -48.1747  -53.8283 H         1 UNK         0.3005 
    107 H107       29.7163  -46.3667  -52.8189 H         1 UNK         0.1257 
    108 H108       29.6849  -47.1708  -49.8748 H         1 UNK         0.0775 
    109 H109       29.2203  -45.5653  -50.3460 H         1 UNK         0.0775 
    110 H110       30.8064  -43.7193  -50.1320 H         1 UNK         0.0840 
    111 H111       32.4102  -43.6868  -50.8035 H         1 UNK         0.0840 
    112 H112       29.1285  -49.0960  -51.8711 H         1 UNK         0.2987 
    113 H113       30.7844  -50.7922  -52.3202 H         1 UNK         0.0785 
    114 H114       30.0473  -51.7740  -54.5407 H         1 UNK         0.0798 
    115 H115       28.8973  -50.5794  -53.9643 H         1 UNK         0.0798 
    116 H116       30.0278  -50.1588  -55.2440 H         1 UNK         0.0798 
    117 H117       32.6006  -49.7799  -54.4282 H         1 UNK         0.3079 
    118 H118       35.2508  -51.7995  -53.1154 H         1 UNK         0.0794 
    119 H119       35.8529  -51.6936  -55.5255 H         1 UNK         0.0786 
    120 H120       34.2020  -51.2424  -55.9459 H         1 UNK         0.0786 
    121 H121       34.5372  -52.8289  -55.2690 H         1 UNK         0.0786 
    122 H122       34.9810  -49.2909  -54.5963 H         1 UNK         0.3032 
    123 H123       34.9202  -47.2405  -51.7195 H         1 UNK         0.1094 
    124 H124       37.2736  -47.5169  -53.6615 H         1 UNK         0.0794 
    125 H125       36.8359  -46.0431  -52.7961 H         1 UNK         0.0794 
    126 H126       37.3524  -47.4692  -51.9109 H         1 UNK         0.0794 
    127 H127       33.5625  -46.6708  -53.3422 H         1 UNK         0.3016 
@<TRIPOS>BOND
     1    1    2 1    
     2    1   67 1    
     3    1   68 1    
     4    1   69 1    
     5    2    3 2    
     6    2    4 am   BACKBONE|DICT|INTERRES
     7    4    5 1    
     8    4   70 1    
     9    5    6 1    
    10    5   65 1    
    11    5   71 1    
    12    6    7 1    
    13    6   72 1    
    14    6   73 1    
    15    7    8 1    
    16    8    9 1    
    17    8   74 1    
    18    8   75 1    
    19    9   10 ar   
    20    9   14 ar   
    21   10   11 ar   
    22   10   76 1    
    23   11   12 ar   
    24   11   48 1    
    25   12   13 ar   
    26   12   77 1    
    27   13   14 ar   
    28   13   15 1    
    29   14   78 1    
    30   15   16 1    
    31   15   79 1    
    32   15   80 1    
    33   16   17 1    
    34   17   18 1    
    35   17   81 1    
    36   17   82 1    
    37   18   19 1    
    38   18   22 1    
    39   18   83 1    
    40   19   20 am   BACKBONE|DICT|INTERRES
    41   19   21 2    
    42   20   84 1    
    43   20   85 1    
    44   22   23 am   BACKBONE|DICT|INTERRES
    45   22   86 1    
    46   23   24 2    
    47   23   25 1    
    48   25   26 1    
    49   25   27 1    
    50   25   87 1    
    51   26   88 1    
    52   26   89 1    
    53   26   90 1    
    54   27   28 am   BACKBONE|DICT|INTERRES
    55   27   91 1    
    56   28   29 2    
    57   28   30 1    
    58   30   31 1    
    59   30   32 1    
    60   30   92 1    
    61   31   93 1    
    62   31   94 1    
    63   31   95 1    
    64   32   33 am   BACKBONE|DICT|INTERRES
    65   32   96 1    
    66   33   34 2    
    67   33   35 1    
    68   35   36 1    
    69   35   37 1    
    70   35   97 1    
    71   36   98 1    
    72   36   99 1    
    73   36  100 1    
    74   37   38 am   BACKBONE|DICT|INTERRES
    75   37  101 1    
    76   38   39 2    
    77   38   40 1    
    78   40   41 1    
    79   40   42 1    
    80   40  102 1    
    81   41  103 1    
    82   41  104 1    
    83   41  105 1    
    84   42   43 am   BACKBONE|DICT|INTERRES
    85   42  106 1    
    86   43   44 2    
    87   43   45 1    
    88   45   46 1    
    89   45   49 1    
    90   45  107 1    
    91   46   47 1    
    92   46  108 1    
    93   46  109 1    
    94   47   48 1    
    95   48  110 1    
    96   48  111 1    
    97   49   50 am   BACKBONE|DICT|INTERRES
    98   49  112 1    
    99   50   51 2    
   100   50   52 1    
   101   52   53 1    
   102   52   54 1    
   103   52  113 1    
   104   53  114 1    
   105   53  115 1    
   106   53  116 1    
   107   54   55 am   BACKBONE|DICT|INTERRES
   108   54  117 1    
   109   55   56 2    
   110   55   57 1    
   111   57   58 1    
   112   57   59 1    
   113   57  118 1    
   114   58  119 1    
   115   58  120 1    
   116   58  121 1    
   117   59   60 am   BACKBONE|DICT|INTERRES
   118   59  122 1    
   119   60   61 2    
   120   60   62 1    
   121   62   63 1    
   122   62   64 1    
   123   62  123 1    
   124   63  124 1    
   125   63  125 1    
   126   63  126 1    
   127   64   65 am   BACKBONE|DICT|INTERRES
   128   64  127 1    
   129   65   66 2    
@<TRIPOS>SUBSTRUCTURE
     1 UNK         1 GROUP             0       ****    0 ROOT    
