@<TRIPOS>MOLECULE
3R134
127   129    1
SMALL
USER_CHARGES


@<TRIPOS>ATOM
      1 CA         37.6178  -47.5441  -55.1982 C.3       0 UNK        -0.1968 
      2 C          36.2181  -47.3403  -54.6406 C.2       0 UNK         0.4852 
      3 O          35.4498  -48.2994  -54.5591 O.2       0 UNK        -0.5359 
      4 N          35.8853  -46.1045  -54.2408 N.am      1 UNK        -0.4300 
      5 CA         34.5746  -45.6771  -53.7254 C.3       1 UNK         0.0863 
      6 C6         34.5573  -44.1651  -53.4058 C.3       11 UNK        -0.0953 
      7 S7         34.6302  -43.1864  -54.9431 S.3       11 UNK        -0.2369 
      8 C8         33.1258  -42.1651  -54.8308 C.3       11 UNK         0.0226 
      9 C9         31.8386  -42.9812  -54.7876 C.ar      11 UNK        -0.0699 
     10 C10        31.1113  -43.0786  -53.5966 C.ar      11 UNK        -0.0804 
     11 C11        29.8939  -43.7646  -53.5526 C.ar      11 UNK        -0.0871 
     12 C12        29.3937  -44.3320  -54.7291 C.ar      11 UNK        -0.1008 
     13 C13        30.1237  -44.2745  -55.9190 C.ar      11 UNK        -0.0735 
     14 C14        31.3494  -43.6002  -55.9422 C.ar      11 UNK        -0.0945 
     15 C15        29.5801  -44.9575  -57.1669 C.3       11 UNK         0.0169 
     16 S16        29.3496  -43.8202  -58.5727 S.3       11 UNK        -0.2669 
     17 C17        28.1847  -42.5718  -57.9115 C.3       11 UNK        -0.0850 
     18 CA         26.7321  -42.6985  -58.4410 C.3       10 UNK         0.0855 
     19 C          26.6198  -42.4183  -59.9706 C.2       10 UNK         0.5543 
     20 N          26.1398  -43.3462  -60.7918 N.am      10 UNK        -0.7343 
     21 O          26.9613  -41.3259  -60.4175 O.2       10 UNK        -0.5027 
     22 N          26.1021  -43.9474  -57.9917 N.am      10 UNK        -0.4495 
     23 C          24.7813  -44.1441  -57.8896 C.2       10 UNK         0.4903 
     24 O          23.9454  -43.2535  -58.0525 O.2       10 UNK        -0.4860 
     25 CA         24.3189  -45.5767  -57.5508 C.3       9 UNK         0.0227 
     26 CB         22.8866  -45.8677  -58.0463 C.3       9 UNK        -0.1964 
     27 N          25.2423  -46.6224  -58.0120 N.am      9 UNK        -0.4231 
     28 C          25.6555  -46.8708  -59.2613 C.2       9 UNK         0.5014 
     29 O          25.3140  -46.1995  -60.2363 O.2       9 UNK        -0.5270 
     30 CA         26.6328  -48.0450  -59.4765 C.3       8 UNK         0.0284 
     31 CB         28.0916  -47.5487  -59.4481 C.3       8 UNK        -0.1977 
     32 N          26.4727  -49.2212  -58.6014 N.am      8 UNK        -0.4342 
     33 C          26.5959  -49.3149  -57.2686 C.2       8 UNK         0.5039 
     34 O          26.7214  -48.3396  -56.5235 O.2       8 UNK        -0.5547 
     35 CA         26.5534  -50.7274  -56.6608 C.3       7 UNK         0.0281 
     36 CB         27.1339  -51.8188  -57.5851 C.3       7 UNK        -0.1963 
     37 N          27.2949  -50.7125  -55.4029 N.am      7 UNK        -0.4444 
     38 C          26.9963  -51.4235  -54.3083 C.2       7 UNK         0.5104 
     39 O          26.0665  -52.2301  -54.2561 O.2       7 UNK        -0.5100 
     40 CA         27.8757  -51.2207  -53.0551 C.3       6 UNK         0.0396 
     41 CB         28.7573  -52.4565  -52.8157 C.3       6 UNK        -0.1801 
     42 N          28.7258  -50.0273  -53.1225 N.am      6 UNK        -0.4747 
     43 C          28.2675  -48.7672  -53.0409 C.2       6 UNK         0.5012 
     44 O          27.0974  -48.5043  -52.7607 O.2       6 UNK        -0.5003 
     45 CA         29.2476  -47.6101  -53.3575 C.3       5 UNK         0.0782 
     46 C46        29.4802  -46.6852  -52.1313 C.3       11 UNK        -0.0868 
     47 S47        28.1909  -45.3997  -51.9763 S.3       11 UNK        -0.2515 
     48 C48        29.1327  -43.8514  -52.2291 C.3       11 UNK         0.0199 
     49 N          30.5131  -48.0444  -53.9685 N.am      5 UNK        -0.4607 
     50 C          30.6136  -48.6001  -55.1860 C.2       4 UNK         0.5031 
     51 O          29.6497  -48.8028  -55.9203 O.2       4 UNK        -0.5119 
     52 CA         32.0000  -49.0585  -55.6622 C.3       4 UNK         0.0263 
     53 CB         32.6535  -47.9690  -56.5262 C.3       4 UNK        -0.1967 
     54 N          32.9108  -49.4728  -54.5895 N.am      4 UNK        -0.4237 
     55 C          32.6889  -50.4969  -53.7497 C.2       3 UNK         0.4908 
     56 O          31.6373  -51.1354  -53.7157 O.2       3 UNK        -0.5102 
     57 CA         33.8231  -50.8753  -52.7869 C.3       3 UNK         0.0241 
     58 CB         34.9169  -51.6668  -53.5231 C.3       3 UNK        -0.1971 
     59 N          34.4085  -49.6829  -52.1779 N.am      3 UNK        -0.4139 
     60 C          34.1083  -49.2266  -50.9539 C.2       2 UNK         0.5016 
     61 O          33.3814  -49.8215  -50.1571 O.2       2 UNK        -0.5319 
     62 CA         34.7063  -47.8659  -50.5433 C.3       2 UNK         0.0286 
     63 CB         35.9906  -48.0685  -49.7233 C.3       2 UNK        -0.1963 
     64 N          34.9923  -46.9737  -51.6722 N.am      2 UNK        -0.4790 
     65 C          34.0708  -46.5025  -52.5254 C.2       1 UNK         0.5024 
     66 O          32.8686  -46.7458  -52.4289 O.2       1 UNK        -0.4888 
     67 H67        38.1567  -48.2762  -54.5976 H         1 UNK         0.0892 
     68 H68        37.5609  -47.9174  -56.2203 H         1 UNK         0.0892 
     69 H69        38.1937  -46.6190  -55.2056 H         1 UNK         0.0892 
     70 H70        36.5626  -45.3619  -54.3425 H         1 UNK         0.3107 
     71 H71        33.8530  -45.8518  -54.5225 H         1 UNK         0.0773 
     72 H72        33.6627  -43.8905  -52.8458 H         1 UNK         0.0680 
     73 H73        35.4014  -43.8915  -52.7704 H         1 UNK         0.0680 
     74 H74        33.0943  -41.4978  -55.6932 H         1 UNK         0.0650 
     75 H75        33.2031  -41.5202  -53.9541 H         1 UNK         0.0650 
     76 H76        31.4905  -42.6068  -52.7003 H         1 UNK         0.1397 
     77 H77        28.4359  -44.8319  -54.7174 H         1 UNK         0.1363 
     78 H78        31.9114  -43.5389  -56.8642 H         1 UNK         0.1355 
     79 H79        28.6306  -45.4502  -56.9532 H         1 UNK         0.0707 
     80 H80        30.2723  -45.7470  -57.4629 H         1 UNK         0.0707 
     81 H81        28.1766  -42.6105  -56.8220 H         1 UNK         0.1034 
     82 H82        28.5830  -41.5847  -58.1533 H         1 UNK         0.1034 
     83 H83        26.1736  -41.8862  -57.9714 H         1 UNK         0.0482 
     84 H84        26.0701  -43.1414  -61.7755 H         1 UNK         0.3460 
     85 H85        25.8498  -44.2547  -60.4469 H         1 UNK         0.3460 
     86 H86        26.7184  -44.7364  -57.8730 H         1 UNK         0.2989 
     87 H87        24.3120  -45.6411  -56.4619 H         1 UNK         0.0559 
     88 H88        22.8055  -45.7640  -59.1289 H         1 UNK         0.0848 
     89 H89        22.1679  -45.1799  -57.5991 H         1 UNK         0.0848 
     90 H90        22.5724  -46.8772  -57.7816 H         1 UNK         0.0848 
     91 H91        25.6628  -47.2073  -57.2859 H         1 UNK         0.3144 
     92 H92        26.4362  -48.4072  -60.4870 H         1 UNK         0.0727 
     93 H93        28.4106  -47.2896  -58.4395 H         1 UNK         0.0790 
     94 H94        28.2238  -46.6633  -60.0722 H         1 UNK         0.0790 
     95 H95        28.7738  -48.3123  -59.8215 H         1 UNK         0.0790 
     96 H96        26.3131  -50.0868  -59.0983 H         1 UNK         0.3215 
     97 H97        25.5035  -50.9511  -56.4601 H         1 UNK         0.0863 
     98 H98        27.1605  -52.7863  -57.0833 H         1 UNK         0.0808 
     99 H99        28.1522  -51.5808  -57.8965 H         1 UNK         0.0808 
    100 H100       26.5302  -51.9505  -58.4834 H         1 UNK         0.0808 
    101 H101       28.0337  -50.0153  -55.3592 H         1 UNK         0.3118 
    102 H102       27.2062  -51.1137  -52.1991 H         1 UNK         0.0546 
    103 H103       28.1468  -53.3480  -52.6665 H         1 UNK         0.0828 
    104 H104       29.3801  -52.3380  -51.9290 H         1 UNK         0.0828 
    105 H105       29.4141  -52.6524  -53.6641 H         1 UNK         0.0828 
    106 H106       29.7010  -50.1807  -53.3566 H         1 UNK         0.3005 
    107 H107       28.7427  -47.0304  -54.1320 H         1 UNK         0.1257 
    108 H108       30.4366  -46.1723  -52.2189 H         1 UNK         0.0775 
    109 H109       29.5408  -47.2551  -51.2022 H         1 UNK         0.0775 
    110 H110       28.4401  -43.0108  -52.1729 H         1 UNK         0.0840 
    111 H111       29.8227  -43.7376  -51.3913 H         1 UNK         0.0840 
    112 H112       31.3562  -47.8826  -53.4289 H         1 UNK         0.2987 
    113 H113       31.8466  -49.9355  -56.2947 H         1 UNK         0.0785 
    114 H114       32.7202  -47.0205  -55.9969 H         1 UNK         0.0798 
    115 H115       32.0648  -47.7889  -57.4267 H         1 UNK         0.0798 
    116 H116       33.6561  -48.2536  -56.8458 H         1 UNK         0.0798 
    117 H117       33.8216  -49.0150  -54.5678 H         1 UNK         0.3079 
    118 H118       33.4026  -51.5251  -52.0161 H         1 UNK         0.0794 
    119 H119       35.3876  -51.0774  -54.3111 H         1 UNK         0.0786 
    120 H120       34.5036  -52.5630  -53.9877 H         1 UNK         0.0786 
    121 H121       35.6993  -51.9896  -52.8361 H         1 UNK         0.0786 
    122 H122       34.9825  -49.1059  -52.7842 H         1 UNK         0.3032 
    123 H123       33.9669  -47.3705  -49.9097 H         1 UNK         0.1094 
    124 H124       36.3747  -47.1210  -49.3448 H         1 UNK         0.0794 
    125 H125       35.8048  -48.7082  -48.8592 H         1 UNK         0.0794 
    126 H126       36.7771  -48.5399  -50.3142 H         1 UNK         0.0794 
    127 H127       35.9605  -46.7365  -51.8351 H         1 UNK         0.3016 
@<TRIPOS>BOND
     1    1    2 1    
     2    1   67 1    
     3    1   68 1    
     4    1   69 1    
     5    2    3 2    
     6    2    4 am   BACKBONE|DICT|INTERRES
     7    4    5 1    
     8    4   70 1    
     9    5    6 1    
    10    5   65 1    
    11    5   71 1    
    12    6    7 1    
    13    6   72 1    
    14    6   73 1    
    15    7    8 1    
    16    8    9 1    
    17    8   74 1    
    18    8   75 1    
    19    9   10 ar   
    20    9   14 ar   
    21   10   11 ar   
    22   10   76 1    
    23   11   12 ar   
    24   11   48 1    
    25   12   13 ar   
    26   12   77 1    
    27   13   14 ar   
    28   13   15 1    
    29   14   78 1    
    30   15   16 1    
    31   15   79 1    
    32   15   80 1    
    33   16   17 1    
    34   17   18 1    
    35   17   81 1    
    36   17   82 1    
    37   18   19 1    
    38   18   22 1    
    39   18   83 1    
    40   19   20 am   BACKBONE|DICT|INTERRES
    41   19   21 2    
    42   20   84 1    
    43   20   85 1    
    44   22   23 am   BACKBONE|DICT|INTERRES
    45   22   86 1    
    46   23   24 2    
    47   23   25 1    
    48   25   26 1    
    49   25   27 1    
    50   25   87 1    
    51   26   88 1    
    52   26   89 1    
    53   26   90 1    
    54   27   28 am   BACKBONE|DICT|INTERRES
    55   27   91 1    
    56   28   29 2    
    57   28   30 1    
    58   30   31 1    
    59   30   32 1    
    60   30   92 1    
    61   31   93 1    
    62   31   94 1    
    63   31   95 1    
    64   32   33 am   BACKBONE|DICT|INTERRES
    65   32   96 1    
    66   33   34 2    
    67   33   35 1    
    68   35   36 1    
    69   35   37 1    
    70   35   97 1    
    71   36   98 1    
    72   36   99 1    
    73   36  100 1    
    74   37   38 am   BACKBONE|DICT|INTERRES
    75   37  101 1    
    76   38   39 2    
    77   38   40 1    
    78   40   41 1    
    79   40   42 1    
    80   40  102 1    
    81   41  103 1    
    82   41  104 1    
    83   41  105 1    
    84   42   43 am   BACKBONE|DICT|INTERRES
    85   42  106 1    
    86   43   44 2    
    87   43   45 1    
    88   45   46 1    
    89   45   49 1    
    90   45  107 1    
    91   46   47 1    
    92   46  108 1    
    93   46  109 1    
    94   47   48 1    
    95   48  110 1    
    96   48  111 1    
    97   49   50 am   BACKBONE|DICT|INTERRES
    98   49  112 1    
    99   50   51 2    
   100   50   52 1    
   101   52   53 1    
   102   52   54 1    
   103   52  113 1    
   104   53  114 1    
   105   53  115 1    
   106   53  116 1    
   107   54   55 am   BACKBONE|DICT|INTERRES
   108   54  117 1    
   109   55   56 2    
   110   55   57 1    
   111   57   58 1    
   112   57   59 1    
   113   57  118 1    
   114   58  119 1    
   115   58  120 1    
   116   58  121 1    
   117   59   60 am   BACKBONE|DICT|INTERRES
   118   59  122 1    
   119   60   61 2    
   120   60   62 1    
   121   62   63 1    
   122   62   64 1    
   123   62  123 1    
   124   63  124 1    
   125   63  125 1    
   126   63  126 1    
   127   64   65 am   BACKBONE|DICT|INTERRES
   128   64  127 1    
   129   65   66 2    
@<TRIPOS>SUBSTRUCTURE
     1 UNK         1 GROUP             0       ****    0 ROOT    
