@<TRIPOS>MOLECULE
3R134
127   129    1
SMALL
USER_CHARGES


@<TRIPOS>ATOM
      1 CA         36.6206  -46.6095  -50.0472 C.3       0 UNK        -0.1968 
      2 C          35.3490  -46.6995  -50.8773 C.2       0 UNK         0.4852 
      3 O          35.0895  -47.7368  -51.4912 O.2       0 UNK        -0.5359 
      4 N          34.5459  -45.6272  -50.8961 N.am      1 UNK        -0.4300 
      5 CA         33.2860  -45.5134  -51.6420 C.3       1 UNK         0.0863 
      6 C6         32.9075  -44.0351  -51.9193 C.3       11 UNK        -0.0953 
      7 S7         34.1675  -43.1872  -52.9281 S.3       11 UNK        -0.2369 
      8 C8         33.1576  -42.0035  -53.8751 C.3       11 UNK         0.0226 
      9 C9         32.3723  -42.6584  -55.0054 C.ar      11 UNK        -0.0699 
     10 C10        33.0445  -43.2618  -56.0719 C.ar      11 UNK        -0.0804 
     11 C11        32.3355  -43.8074  -57.1465 C.ar      11 UNK        -0.0871 
     12 C12        30.9368  -43.7578  -57.1422 C.ar      11 UNK        -0.1008 
     13 C13        30.2476  -43.1592  -56.0796 C.ar      11 UNK        -0.0735 
     14 C14        30.9753  -42.6081  -55.0179 C.ar      11 UNK        -0.0945 
     15 C15        28.7230  -43.0655  -56.1054 C.3       11 UNK         0.0169 
     16 S16        27.9576  -43.6480  -54.5567 S.3       11 UNK        -0.2669 
     17 C17        26.1786  -43.4336  -54.8971 C.3       11 UNK        -0.0850 
     18 CA         25.4593  -44.7879  -55.1934 C.3       10 UNK         0.0855 
     19 C          23.9118  -44.7316  -54.9879 C.2       10 UNK         0.5543 
     20 N          23.4395  -44.1374  -53.8995 N.am      10 UNK        -0.7343 
     21 O          23.1257  -45.2638  -55.7699 O.2       10 UNK        -0.5027 
     22 N          25.8618  -45.3750  -56.4866 N.am      10 UNK        -0.4495 
     23 C          25.6014  -44.8598  -57.6973 C.2       10 UNK         0.4903 
     24 O          25.0491  -43.7728  -57.8738 O.2       10 UNK        -0.4860 
     25 CA         26.0251  -45.6660  -58.9359 C.3       9 UNK         0.0227 
     26 CB         27.1264  -44.9187  -59.7096 C.3       9 UNK        -0.1964 
     27 N          26.4969  -47.0209  -58.6293 N.am      9 UNK        -0.4231 
     28 C          25.7711  -48.1352  -58.7970 C.2       9 UNK         0.5014 
     29 O          24.5777  -48.1373  -59.1024 O.2       9 UNK        -0.5270 
     30 CA         26.5055  -49.4800  -58.6473 C.3       8 UNK         0.0284 
     31 CB         27.4543  -49.7172  -59.8343 C.3       8 UNK        -0.1977 
     32 N          27.2508  -49.6122  -57.3957 N.am      8 UNK        -0.4342 
     33 C          26.6913  -49.7704  -56.1877 C.2       8 UNK         0.5039 
     34 O          25.4767  -49.7975  -55.9893 O.2       8 UNK        -0.5547 
     35 CA         27.6527  -49.9177  -54.9975 C.3       7 UNK         0.0281 
     36 CB         28.1697  -51.3600  -54.8712 C.3       7 UNK        -0.1963 
     37 N          28.7742  -48.9865  -55.1224 N.am      7 UNK        -0.4444 
     38 C          28.6936  -47.6954  -54.7747 C.2       7 UNK         0.5104 
     39 O          27.7405  -47.2202  -54.1600 O.2       7 UNK        -0.5100 
     40 CA         29.8385  -46.7671  -55.2080 C.3       6 UNK         0.0396 
     41 CB         30.7500  -46.4134  -54.0315 C.3       6 UNK        -0.1801 
     42 N          30.6401  -47.3064  -56.3032 N.am      6 UNK        -0.4747 
     43 C          30.2472  -47.2863  -57.5838 C.2       6 UNK         0.5012 
     44 O          29.1658  -46.8352  -57.9549 O.2       6 UNK        -0.5003 
     45 CA         31.1826  -47.9280  -58.6247 C.3       5 UNK         0.0782 
     46 C46        32.1083  -46.8792  -59.2867 C.3       11 UNK        -0.0868 
     47 S47        33.3851  -46.1797  -58.1771 S.3       11 UNK        -0.2515 
     48 C48        33.0954  -44.3862  -58.3336 C.3       11 UNK         0.0199 
     49 N          31.9170  -49.0846  -58.1037 N.am      5 UNK        -0.4607 
     50 C          31.3471  -50.1841  -57.5931 C.2       4 UNK         0.5031 
     51 O          30.1263  -50.3418  -57.5202 O.2       4 UNK        -0.5119 
     52 CA         32.2758  -51.2732  -57.0264 C.3       4 UNK         0.0263 
     53 CB         33.7765  -51.0427  -57.3210 C.3       4 UNK        -0.1967 
     54 N          32.0633  -51.4708  -55.5871 N.am      4 UNK        -0.4237 
     55 C          32.1701  -50.5455  -54.6219 C.2       3 UNK         0.4908 
     56 O          32.4292  -49.3551  -54.8240 O.2       3 UNK        -0.5102 
     57 CA         31.9663  -51.0449  -53.1861 C.3       3 UNK         0.0241 
     58 CB         33.1187  -51.9694  -52.7471 C.3       3 UNK        -0.1971 
     59 N          31.8938  -49.8966  -52.2876 N.am      3 UNK        -0.4139 
     60 C          31.2688  -49.8656  -51.1039 C.2       2 UNK         0.5016 
     61 O          30.6514  -50.8260  -50.6412 O.2       2 UNK        -0.5319 
     62 CA         31.3469  -48.5609  -50.2884 C.3       2 UNK         0.0286 
     63 CB         31.7043  -48.8265  -48.8137 C.3       2 UNK        -0.1963 
     64 N          32.3129  -47.6154  -50.8527 N.am      2 UNK        -0.4790 
     65 C          32.1512  -46.2910  -50.9375 C.2       1 UNK         0.5024 
     66 O          31.1683  -45.6960  -50.4928 O.2       1 UNK        -0.4888 
     67 H67        37.4930  -46.7662  -50.6809 H         1 UNK         0.0892 
     68 H68        36.7236  -45.6388  -49.5622 H         1 UNK         0.0892 
     69 H69        36.6182  -47.3771  -49.2737 H         1 UNK         0.0892 
     70 H70        34.8039  -44.8091  -50.3628 H         1 UNK         0.3107 
     71 H71        33.4282  -45.9925  -52.6136 H         1 UNK         0.0773 
     72 H72        31.9515  -43.9821  -52.4437 H         1 UNK         0.0680 
     73 H73        32.7783  -43.4826  -50.9868 H         1 UNK         0.0680 
     74 H74        32.4939  -41.4729  -53.1905 H         1 UNK         0.0650 
     75 H75        33.8191  -41.2492  -54.3030 H         1 UNK         0.0650 
     76 H76        34.1259  -43.2865  -56.0727 H         1 UNK         0.1397 
     77 H77        30.3857  -44.1723  -57.9752 H         1 UNK         0.1363 
     78 H78        30.4489  -42.1275  -54.2046 H         1 UNK         0.1355 
     79 H79        28.3198  -43.6509  -56.9322 H         1 UNK         0.0707 
     80 H80        28.4354  -42.0285  -56.2830 H         1 UNK         0.0707 
     81 H81        26.0301  -42.7170  -55.7055 H         1 UNK         0.1034 
     82 H82        25.7675  -42.9526  -54.0095 H         1 UNK         0.1034 
     83 H83        25.7894  -45.5069  -54.4443 H         1 UNK         0.0482 
     84 H84        24.0541  -43.7320  -53.2115 H         1 UNK         0.3460 
     85 H85        22.4424  -44.1153  -53.7519 H         1 UNK         0.3460 
     86 H86        26.3003  -46.2821  -56.4356 H         1 UNK         0.2989 
     87 H87        25.1513  -45.7212  -59.5883 H         1 UNK         0.0559 
     88 H88        28.0200  -44.7693  -59.1040 H         1 UNK         0.0848 
     89 H89        26.7824  -43.9331  -60.0260 H         1 UNK         0.0848 
     90 H90        27.4184  -45.4616  -60.6085 H         1 UNK         0.0848 
     91 H91        27.4803  -47.0959  -58.3661 H         1 UNK         0.3144 
     92 H92        25.7506  -50.2693  -58.6661 H         1 UNK         0.0727 
     93 H93        28.2457  -48.9690  -59.8774 H         1 UNK         0.0790 
     94 H94        26.9131  -49.6730  -60.7804 H         1 UNK         0.0790 
     95 H95        27.9253  -50.6988  -59.7760 H         1 UNK         0.0790 
     96 H96        28.2619  -49.6746  -57.4691 H         1 UNK         0.3215 
     97 H97        27.0931  -49.6887  -54.0874 H         1 UNK         0.0863 
     98 H98        28.7601  -51.6659  -55.7345 H         1 UNK         0.0808 
     99 H99        27.3390  -52.0615  -54.7830 H         1 UNK         0.0808 
    100 H100       28.7852  -51.4796  -53.9805 H         1 UNK         0.0808 
    101 H101       29.5723  -49.2921  -55.6646 H         1 UNK         0.3118 
    102 H102       29.3799  -45.8451  -55.5602 H         1 UNK         0.0546 
    103 H103       31.5235  -45.7074  -54.3350 H         1 UNK         0.0828 
    104 H104       31.2340  -47.2977  -53.6210 H         1 UNK         0.0828 
    105 H105       30.1769  -45.9433  -53.2312 H         1 UNK         0.0828 
    106 H106       31.5242  -47.7401  -56.0614 H         1 UNK         0.3005 
    107 H107       30.5305  -48.3149  -59.4104 H         1 UNK         0.1257 
    108 H108       31.5059  -46.0802  -59.7223 H         1 UNK         0.0775 
    109 H109       32.6258  -47.3381  -60.1305 H         1 UNK         0.0775 
    110 H110       34.0662  -43.8950  -58.4173 H         1 UNK         0.0840 
    111 H111       32.5766  -44.1531  -59.2640 H         1 UNK         0.0840 
    112 H112       32.9233  -49.0031  -58.0869 H         1 UNK         0.2987 
    113 H113       31.9816  -52.2025  -57.5164 H         1 UNK         0.0785 
    114 H114       34.3751  -51.8801  -56.9621 H         1 UNK         0.0798 
    115 H115       33.9621  -50.9589  -58.3928 H         1 UNK         0.0798 
    116 H116       34.1602  -50.1406  -56.8425 H         1 UNK         0.0798 
    117 H117       31.8134  -52.4119  -55.3165 H         1 UNK         0.3079 
    118 H118       31.0233  -51.5931  -53.1490 H         1 UNK         0.0794 
    119 H119       32.9722  -52.3298  -51.7287 H         1 UNK         0.0786 
    120 H120       34.0801  -51.4551  -52.7829 H         1 UNK         0.0786 
    121 H121       33.1933  -52.8482  -53.3886 H         1 UNK         0.0786 
    122 H122       32.3227  -49.0584  -52.6577 H         1 UNK         0.3032 
    123 H123       30.3456  -48.1256  -50.3286 H         1 UNK         0.1094 
    124 H124       31.7072  -47.9030  -48.2345 H         1 UNK         0.0794 
    125 H125       30.9815  -49.4961  -48.3457 H         1 UNK         0.0794 
    126 H126       32.6884  -49.2864  -48.7170 H         1 UNK         0.0794 
    127 H127       33.2050  -47.9950  -51.1648 H         1 UNK         0.3016 
@<TRIPOS>BOND
     1    1    2 1    
     2    1   67 1    
     3    1   68 1    
     4    1   69 1    
     5    2    3 2    
     6    2    4 am   BACKBONE|DICT|INTERRES
     7    4    5 1    
     8    4   70 1    
     9    5    6 1    
    10    5   65 1    
    11    5   71 1    
    12    6    7 1    
    13    6   72 1    
    14    6   73 1    
    15    7    8 1    
    16    8    9 1    
    17    8   74 1    
    18    8   75 1    
    19    9   10 ar   
    20    9   14 ar   
    21   10   11 ar   
    22   10   76 1    
    23   11   12 ar   
    24   11   48 1    
    25   12   13 ar   
    26   12   77 1    
    27   13   14 ar   
    28   13   15 1    
    29   14   78 1    
    30   15   16 1    
    31   15   79 1    
    32   15   80 1    
    33   16   17 1    
    34   17   18 1    
    35   17   81 1    
    36   17   82 1    
    37   18   19 1    
    38   18   22 1    
    39   18   83 1    
    40   19   20 am   BACKBONE|DICT|INTERRES
    41   19   21 2    
    42   20   84 1    
    43   20   85 1    
    44   22   23 am   BACKBONE|DICT|INTERRES
    45   22   86 1    
    46   23   24 2    
    47   23   25 1    
    48   25   26 1    
    49   25   27 1    
    50   25   87 1    
    51   26   88 1    
    52   26   89 1    
    53   26   90 1    
    54   27   28 am   BACKBONE|DICT|INTERRES
    55   27   91 1    
    56   28   29 2    
    57   28   30 1    
    58   30   31 1    
    59   30   32 1    
    60   30   92 1    
    61   31   93 1    
    62   31   94 1    
    63   31   95 1    
    64   32   33 am   BACKBONE|DICT|INTERRES
    65   32   96 1    
    66   33   34 2    
    67   33   35 1    
    68   35   36 1    
    69   35   37 1    
    70   35   97 1    
    71   36   98 1    
    72   36   99 1    
    73   36  100 1    
    74   37   38 am   BACKBONE|DICT|INTERRES
    75   37  101 1    
    76   38   39 2    
    77   38   40 1    
    78   40   41 1    
    79   40   42 1    
    80   40  102 1    
    81   41  103 1    
    82   41  104 1    
    83   41  105 1    
    84   42   43 am   BACKBONE|DICT|INTERRES
    85   42  106 1    
    86   43   44 2    
    87   43   45 1    
    88   45   46 1    
    89   45   49 1    
    90   45  107 1    
    91   46   47 1    
    92   46  108 1    
    93   46  109 1    
    94   47   48 1    
    95   48  110 1    
    96   48  111 1    
    97   49   50 am   BACKBONE|DICT|INTERRES
    98   49  112 1    
    99   50   51 2    
   100   50   52 1    
   101   52   53 1    
   102   52   54 1    
   103   52  113 1    
   104   53  114 1    
   105   53  115 1    
   106   53  116 1    
   107   54   55 am   BACKBONE|DICT|INTERRES
   108   54  117 1    
   109   55   56 2    
   110   55   57 1    
   111   57   58 1    
   112   57   59 1    
   113   57  118 1    
   114   58  119 1    
   115   58  120 1    
   116   58  121 1    
   117   59   60 am   BACKBONE|DICT|INTERRES
   118   59  122 1    
   119   60   61 2    
   120   60   62 1    
   121   62   63 1    
   122   62   64 1    
   123   62  123 1    
   124   63  124 1    
   125   63  125 1    
   126   63  126 1    
   127   64   65 am   BACKBONE|DICT|INTERRES
   128   64  127 1    
   129   65   66 2    
@<TRIPOS>SUBSTRUCTURE
     1 UNK         1 GROUP             0       ****    0 ROOT    
