@<TRIPOS>MOLECULE
3R134
127   129    1
SMALL
USER_CHARGES


@<TRIPOS>ATOM
      1 CA         30.6757  -44.3450  -48.1865 C.3       0 UNK        -0.1968 
      2 C          31.8980  -45.1409  -48.6206 C.2       0 UNK         0.4852 
      3 O          32.6057  -45.6869  -47.7721 O.2       0 UNK        -0.5359 
      4 N          32.1526  -45.2039  -49.9332 N.am      1 UNK        -0.4300 
      5 CA         33.2422  -45.9756  -50.5378 C.3       1 UNK         0.0863 
      6 C6         33.5832  -45.4791  -51.9668 C.3       11 UNK        -0.0953 
      7 S7         34.1129  -43.7347  -52.0273 S.3       11 UNK        -0.2369 
      8 C8         32.5844  -42.8633  -52.5347 C.3       11 UNK         0.0226 
      9 C9         32.0468  -43.2013  -53.9282 C.ar      11 UNK        -0.0699 
     10 C10        32.8820  -43.6355  -54.9667 C.ar      11 UNK        -0.0804 
     11 C11        32.3584  -43.9102  -56.2335 C.ar      11 UNK        -0.0871 
     12 C12        30.9945  -43.7365  -56.4627 C.ar      11 UNK        -0.1008 
     13 C13        30.1403  -43.3127  -55.4443 C.ar      11 UNK        -0.0735 
     14 C14        30.6777  -43.0411  -54.1807 C.ar      11 UNK        -0.0945 
     15 C15        28.6364  -43.2034  -55.6862 C.3       11 UNK         0.0169 
     16 S16        28.1796  -42.0669  -57.0383 S.3       11 UNK        -0.2669 
     17 C17        28.0497  -43.1697  -58.4959 C.3       11 UNK        -0.0850 
     18 CA         26.6212  -43.7317  -58.7080 C.3       10 UNK         0.0855 
     19 C          26.4727  -44.3516  -60.1208 C.2       10 UNK         0.5543 
     20 N          25.7917  -43.6699  -61.0312 N.am      10 UNK        -0.7343 
     21 O          27.0066  -45.4206  -60.4099 O.2       10 UNK        -0.5027 
     22 N          26.2937  -44.7363  -57.6907 N.am      10 UNK        -0.4495 
     23 C          25.0716  -44.9372  -57.1871 C.2       10 UNK         0.4903 
     24 O          24.0864  -44.2586  -57.4837 O.2       10 UNK        -0.4860 
     25 CA         24.9412  -46.0877  -56.1716 C.3       9 UNK         0.0227 
     26 CB         23.4910  -46.3221  -55.6974 C.3       9 UNK        -0.1964 
     27 N          25.5442  -47.3370  -56.6488 N.am      9 UNK        -0.4231 
     28 C          25.2032  -48.0529  -57.7327 C.2       9 UNK         0.5014 
     29 O          24.2830  -47.7492  -58.4934 O.2       9 UNK        -0.5270 
     30 CA         26.0192  -49.3267  -58.0386 C.3       8 UNK         0.0284 
     31 CB         26.8481  -49.1296  -59.3191 C.3       8 UNK        -0.1977 
     32 N          26.9168  -49.7387  -56.9557 N.am      8 UNK        -0.4342 
     33 C          26.5398  -50.2841  -55.7909 C.2       8 UNK         0.5039 
     34 O          25.3796  -50.5975  -55.5238 O.2       8 UNK        -0.5547 
     35 CA         27.6384  -50.4501  -54.7221 C.3       7 UNK         0.0281 
     36 CB         28.3871  -51.7795  -54.9042 C.3       7 UNK        -0.1963 
     37 N          28.5897  -49.3301  -54.7146 N.am      7 UNK        -0.4444 
     38 C          28.2510  -48.0639  -54.4280 C.2       7 UNK         0.5104 
     39 O          27.1237  -47.7239  -54.0719 O.2       7 UNK        -0.5100 
     40 CA         29.3136  -46.9800  -54.6387 C.3       6 UNK         0.0396 
     41 CB         30.1698  -46.7820  -53.3862 C.3       6 UNK        -0.1801 
     42 N          30.1622  -47.2586  -55.7973 N.am      6 UNK        -0.4747 
     43 C          29.8015  -47.0104  -57.0653 C.2       6 UNK         0.5012 
     44 O          28.7443  -46.4549  -57.3710 O.2       6 UNK        -0.5003 
     45 CA         30.7428  -47.5151  -58.1829 C.3       5 UNK         0.0782 
     46 C46        31.7454  -46.4358  -58.6695 C.3       11 UNK        -0.0868 
     47 S47        33.1912  -46.1922  -57.5706 S.3       11 UNK        -0.2515 
     48 C48        33.2611  -44.3846  -57.3620 C.3       11 UNK         0.0199 
     49 N          31.4243  -48.7643  -57.8314 N.am      5 UNK        -0.4607 
     50 C          30.8205  -49.9388  -57.6190 C.2       4 UNK         0.5031 
     51 O          29.6123  -50.1143  -57.7603 O.2       4 UNK        -0.5119 
     52 CA         31.6991  -51.1002  -57.1211 C.3       4 UNK         0.0263 
     53 CB         32.1870  -51.9458  -58.3075 C.3       4 UNK        -0.1967 
     54 N          32.8502  -50.6805  -56.3123 N.am      4 UNK        -0.4237 
     55 C          32.7782  -49.9964  -55.1614 C.2       3 UNK         0.4908 
     56 O          31.7204  -49.5986  -54.6666 O.2       3 UNK        -0.5102 
     57 CA         34.1261  -49.6469  -54.5072 C.3       3 UNK         0.0241 
     58 CB         34.7410  -48.4075  -55.1769 C.3       3 UNK        -0.1971 
     59 N          34.0230  -49.3847  -53.0722 N.am      3 UNK        -0.4139 
     60 C          33.7456  -50.2885  -52.1233 C.2       2 UNK         0.5016 
     61 O          33.5288  -51.4791  -52.3553 O.2       2 UNK        -0.5319 
     62 CA         33.7588  -49.7961  -50.6610 C.3       2 UNK         0.0286 
     63 CB         34.8996  -50.4675  -49.8764 C.3       2 UNK        -0.1963 
     64 N          33.9038  -48.3383  -50.5424 N.am      2 UNK        -0.4790 
     65 C          32.8797  -47.4756  -50.5659 C.2       1 UNK         0.5024 
     66 O          31.7004  -47.8249  -50.6501 O.2       1 UNK        -0.4888 
     67 H67        30.9714  -43.5404  -47.5138 H         1 UNK         0.0892 
     68 H68        29.9758  -44.9917  -47.6580 H         1 UNK         0.0892 
     69 H69        30.1538  -43.9023  -49.0348 H         1 UNK         0.0892 
     70 H70        31.5129  -44.7735  -50.5828 H         1 UNK         0.3107 
     71 H71        34.1308  -45.8540  -49.9140 H         1 UNK         0.0773 
     72 H72        34.4036  -46.0666  -52.3827 H         1 UNK         0.0680 
     73 H73        32.7468  -45.6246  -52.6458 H         1 UNK         0.0680 
     74 H74        31.8161  -43.0507  -51.7842 H         1 UNK         0.0650 
     75 H75        32.7830  -41.7915  -52.5030 H         1 UNK         0.0650 
     76 H76        33.9422  -43.7582  -54.7961 H         1 UNK         0.1397 
     77 H77        30.6003  -43.9442  -57.4406 H         1 UNK         0.1363 
     78 H78        30.0247  -42.7098  -53.3848 H         1 UNK         0.1355 
     79 H79        28.2322  -44.1913  -55.8943 H         1 UNK         0.0707 
     80 H80        28.1351  -42.8606  -54.7801 H         1 UNK         0.0707 
     81 H81        28.7611  -43.9906  -58.4380 H         1 UNK         0.1034 
     82 H82        28.3536  -42.5768  -59.3610 H         1 UNK         0.1034 
     83 H83        25.9226  -42.8960  -58.6259 H         1 UNK         0.0482 
     84 H84        25.3571  -42.7885  -60.8055 H         1 UNK         0.3460 
     85 H85        25.6989  -44.0508  -61.9599 H         1 UNK         0.3460 
     86 H86        27.0388  -45.3895  -57.4681 H         1 UNK         0.2989 
     87 H87        25.5229  -45.7860  -55.2995 H         1 UNK         0.0559 
     88 H88        23.4416  -47.1188  -54.9551 H         1 UNK         0.0848 
     89 H89        22.8311  -46.5908  -56.5228 H         1 UNK         0.0848 
     90 H90        23.0819  -45.4232  -55.2348 H         1 UNK         0.0848 
     91 H91        26.3011  -47.6875  -56.0752 H         1 UNK         0.3144 
     92 H92        25.3061  -50.1350  -58.2126 H         1 UNK         0.0727 
     93 H93        27.3958  -50.0345  -59.5834 H         1 UNK         0.0790 
     94 H94        27.5697  -48.3193  -59.2083 H         1 UNK         0.0790 
     95 H95        26.2082  -48.8787  -60.1662 H         1 UNK         0.0790 
     96 H96        27.9138  -49.6255  -57.1288 H         1 UNK         0.3215 
     97 H97        27.1498  -50.4686  -53.7454 H         1 UNK         0.0863 
     98 H98        29.1978  -51.8859  -54.1830 H         1 UNK         0.0808 
     99 H99        28.8080  -51.8745  -55.9044 H         1 UNK         0.0808 
    100 H100       27.7114  -52.6235  -54.7607 H         1 UNK         0.0808 
    101 H101       29.5537  -49.5268  -54.9586 H         1 UNK         0.3118 
    102 H102       28.7808  -46.0452  -54.8073 H         1 UNK         0.0546 
    103 H103       29.5507  -46.6605  -52.4964 H         1 UNK         0.0828 
    104 H104       30.7667  -45.8794  -53.4877 H         1 UNK         0.0828 
    105 H105       30.8400  -47.6221  -53.2074 H         1 UNK         0.0828 
    106 H106       31.0189  -47.7688  -55.6208 H         1 UNK         0.3005 
    107 H107       30.0882  -47.7442  -59.0273 H         1 UNK         0.1257 
    108 H108       32.1415  -46.7411  -59.6392 H         1 UNK         0.0775 
    109 H109       31.2377  -45.4916  -58.8637 H         1 UNK         0.0775 
    110 H110       34.2941  -44.1012  -57.1547 H         1 UNK         0.0840 
    111 H111       32.9969  -43.8878  -58.2968 H         1 UNK         0.0840 
    112 H112       32.4208  -48.6938  -57.6858 H         1 UNK         0.2987 
    113 H113       31.0754  -51.7329  -56.4879 H         1 UNK         0.0785 
    114 H114       32.8477  -51.3787  -58.9645 H         1 UNK         0.0798 
    115 H115       31.3464  -52.2920  -58.9111 H         1 UNK         0.0798 
    116 H116       32.7258  -52.8315  -57.9702 H         1 UNK         0.0798 
    117 H117       33.7607  -50.9511  -56.6563 H         1 UNK         0.3079 
    118 H118       34.8021  -50.4937  -54.6436 H         1 UNK         0.0794 
    119 H119       34.1195  -47.5228  -55.0307 H         1 UNK         0.0786 
    120 H120       34.8582  -48.5518  -56.2516 H         1 UNK         0.0786 
    121 H121       35.7308  -48.1891  -54.7753 H         1 UNK         0.0786 
    122 H122       34.1624  -48.4315  -52.7783 H         1 UNK         0.3032 
    123 H123       32.8116  -50.1054  -50.2123 H         1 UNK         0.1094 
    124 H124       34.8890  -50.1692  -48.8278 H         1 UNK         0.0794 
    125 H125       34.8060  -51.5542  -49.9014 H         1 UNK         0.0794 
    126 H126       35.8776  -50.2157  -50.2885 H         1 UNK         0.0794 
    127 H127       34.8468  -47.9829  -50.4592 H         1 UNK         0.3016 
@<TRIPOS>BOND
     1    1    2 1    
     2    1   67 1    
     3    1   68 1    
     4    1   69 1    
     5    2    3 2    
     6    2    4 am   BACKBONE|DICT|INTERRES
     7    4    5 1    
     8    4   70 1    
     9    5    6 1    
    10    5   65 1    
    11    5   71 1    
    12    6    7 1    
    13    6   72 1    
    14    6   73 1    
    15    7    8 1    
    16    8    9 1    
    17    8   74 1    
    18    8   75 1    
    19    9   10 ar   
    20    9   14 ar   
    21   10   11 ar   
    22   10   76 1    
    23   11   12 ar   
    24   11   48 1    
    25   12   13 ar   
    26   12   77 1    
    27   13   14 ar   
    28   13   15 1    
    29   14   78 1    
    30   15   16 1    
    31   15   79 1    
    32   15   80 1    
    33   16   17 1    
    34   17   18 1    
    35   17   81 1    
    36   17   82 1    
    37   18   19 1    
    38   18   22 1    
    39   18   83 1    
    40   19   20 am   BACKBONE|DICT|INTERRES
    41   19   21 2    
    42   20   84 1    
    43   20   85 1    
    44   22   23 am   BACKBONE|DICT|INTERRES
    45   22   86 1    
    46   23   24 2    
    47   23   25 1    
    48   25   26 1    
    49   25   27 1    
    50   25   87 1    
    51   26   88 1    
    52   26   89 1    
    53   26   90 1    
    54   27   28 am   BACKBONE|DICT|INTERRES
    55   27   91 1    
    56   28   29 2    
    57   28   30 1    
    58   30   31 1    
    59   30   32 1    
    60   30   92 1    
    61   31   93 1    
    62   31   94 1    
    63   31   95 1    
    64   32   33 am   BACKBONE|DICT|INTERRES
    65   32   96 1    
    66   33   34 2    
    67   33   35 1    
    68   35   36 1    
    69   35   37 1    
    70   35   97 1    
    71   36   98 1    
    72   36   99 1    
    73   36  100 1    
    74   37   38 am   BACKBONE|DICT|INTERRES
    75   37  101 1    
    76   38   39 2    
    77   38   40 1    
    78   40   41 1    
    79   40   42 1    
    80   40  102 1    
    81   41  103 1    
    82   41  104 1    
    83   41  105 1    
    84   42   43 am   BACKBONE|DICT|INTERRES
    85   42  106 1    
    86   43   44 2    
    87   43   45 1    
    88   45   46 1    
    89   45   49 1    
    90   45  107 1    
    91   46   47 1    
    92   46  108 1    
    93   46  109 1    
    94   47   48 1    
    95   48  110 1    
    96   48  111 1    
    97   49   50 am   BACKBONE|DICT|INTERRES
    98   49  112 1    
    99   50   51 2    
   100   50   52 1    
   101   52   53 1    
   102   52   54 1    
   103   52  113 1    
   104   53  114 1    
   105   53  115 1    
   106   53  116 1    
   107   54   55 am   BACKBONE|DICT|INTERRES
   108   54  117 1    
   109   55   56 2    
   110   55   57 1    
   111   57   58 1    
   112   57   59 1    
   113   57  118 1    
   114   58  119 1    
   115   58  120 1    
   116   58  121 1    
   117   59   60 am   BACKBONE|DICT|INTERRES
   118   59  122 1    
   119   60   61 2    
   120   60   62 1    
   121   62   63 1    
   122   62   64 1    
   123   62  123 1    
   124   63  124 1    
   125   63  125 1    
   126   63  126 1    
   127   64   65 am   BACKBONE|DICT|INTERRES
   128   64  127 1    
   129   65   66 2    
@<TRIPOS>SUBSTRUCTURE
     1 UNK         1 GROUP             0       ****    0 ROOT    
