@<TRIPOS>MOLECULE
3R134
127   129    1
SMALL
USER_CHARGES


@<TRIPOS>ATOM
      1 CA         30.3882  -49.6883  -58.8438 C.3       0 UNK        -0.1968 
      2 C          31.4622  -48.8193  -58.2111 C.2       0 UNK         0.4852 
      3 O          32.6117  -48.8776  -58.6493 O.2       0 UNK        -0.5359 
      4 N          31.0945  -48.0239  -57.1934 N.am      1 UNK        -0.4300 
      5 CA         31.9809  -47.1707  -56.3889 C.3       1 UNK         0.0863 
      6 C6         32.6538  -46.0396  -57.2321 C.3       11 UNK        -0.0953 
      7 S7         33.8425  -44.9678  -56.3464 S.3       11 UNK        -0.2369 
      8 C8         32.9160  -43.4225  -56.1193 C.3       11 UNK         0.0226 
      9 C9         31.9227  -43.5132  -54.9718 C.ar      11 UNK        -0.0699 
     10 C10        32.3762  -43.6596  -53.6567 C.ar      11 UNK        -0.0804 
     11 C11        31.4711  -43.6908  -52.5919 C.ar      11 UNK        -0.0871 
     12 C12        30.1022  -43.5630  -52.8512 C.ar      11 UNK        -0.1008 
     13 C13        29.6381  -43.4242  -54.1627 C.ar      11 UNK        -0.0735 
     14 C14        30.5524  -43.4057  -55.2185 C.ar      11 UNK        -0.0945 
     15 C15        28.1516  -43.2746  -54.4401 C.3       11 UNK         0.0169 
     16 S16        27.3088  -44.8781  -54.3366 S.3       11 UNK        -0.2669 
     17 C17        25.6519  -44.4460  -54.9659 C.3       11 UNK        -0.0850 
     18 CA         25.3406  -45.1773  -56.3006 C.3       10 UNK         0.0855 
     19 C          23.8438  -45.0791  -56.7292 C.2       10 UNK         0.5543 
     20 N          23.5187  -45.1244  -58.0168 N.am      10 UNK        -0.7343 
     21 O          22.9564  -44.9972  -55.8837 O.2       10 UNK        -0.5027 
     22 N          26.3034  -44.8695  -57.3702 N.am      10 UNK        -0.4495 
     23 C          26.4419  -43.7040  -58.0176 C.2       10 UNK         0.4903 
     24 O          25.8669  -42.6640  -57.6963 O.2       10 UNK        -0.4860 
     25 CA         27.3483  -43.7012  -59.2666 C.3       9 UNK         0.0227 
     26 CB         28.7375  -43.1417  -58.9217 C.3       9 UNK        -0.1964 
     27 N          27.5093  -45.0209  -59.8878 N.am      9 UNK        -0.4231 
     28 C          26.5230  -45.7881  -60.3745 C.2       9 UNK         0.5014 
     29 O          25.3473  -45.4277  -60.4573 O.2       9 UNK        -0.5270 
     30 CA         26.8913  -47.2353  -60.7553 C.3       8 UNK         0.0284 
     31 CB         28.3836  -47.4288  -61.1135 C.3       8 UNK        -0.1977 
     32 N          26.4815  -48.1810  -59.7060 N.am      8 UNK        -0.4342 
     33 C          26.8475  -48.1592  -58.4148 C.2       8 UNK         0.5039 
     34 O          27.6181  -47.3187  -57.9452 O.2       8 UNK        -0.5547 
     35 CA         26.2254  -49.2432  -57.5106 C.3       7 UNK         0.0281 
     36 CB         26.6713  -50.6636  -57.9204 C.3       7 UNK        -0.1963 
     37 N          26.4492  -49.0247  -56.0724 N.am      7 UNK        -0.4444 
     38 C          27.6118  -49.0158  -55.4024 C.2       7 UNK         0.5104 
     39 O          28.7219  -49.2261  -55.9014 O.2       7 UNK        -0.5100 
     40 CA         27.5056  -48.7535  -53.8960 C.3       6 UNK         0.0396 
     41 CB         27.0710  -50.0229  -53.1412 C.3       6 UNK        -0.1801 
     42 N          28.8065  -48.3149  -53.4056 N.am      6 UNK        -0.4747 
     43 C          29.0186  -47.5412  -52.3348 C.2       6 UNK         0.5012 
     44 O          28.1193  -47.1363  -51.5949 O.2       6 UNK        -0.5003 
     45 CA         30.4959  -47.2064  -52.0364 C.3       5 UNK         0.0782 
     46 C46        30.6838  -46.3159  -50.7774 C.3       11 UNK        -0.0868 
     47 S47        32.3467  -45.5699  -50.7335 S.3       11 UNK        -0.2515 
     48 C48        31.9779  -43.8368  -51.1626 C.3       11 UNK         0.0199 
     49 N          31.3069  -48.4327  -52.0108 N.am      5 UNK        -0.4607 
     50 C          31.1558  -49.4680  -51.1699 C.2       4 UNK         0.5031 
     51 O          30.3469  -49.5007  -50.2422 O.2       4 UNK        -0.5119 
     52 CA         32.0493  -50.6924  -51.4144 C.3       4 UNK         0.0263 
     53 CB         31.4427  -51.5889  -52.5073 C.3       4 UNK        -0.1967 
     54 N          33.4197  -50.3357  -51.7805 N.am      4 UNK        -0.4237 
     55 C          34.3325  -49.8267  -50.9383 C.2       3 UNK         0.4908 
     56 O          34.1113  -49.6010  -49.7480 O.2       3 UNK        -0.5102 
     57 CA         35.7429  -49.5547  -51.4990 C.3       3 UNK         0.0241 
     58 CB         36.7469  -50.5849  -50.9541 C.3       3 UNK        -0.1971 
     59 N          35.7819  -49.5830  -52.9635 N.am      3 UNK        -0.4139 
     60 C          35.4119  -48.5626  -53.7473 C.2       2 UNK         0.5016 
     61 O          35.1471  -47.4382  -53.3167 O.2       2 UNK        -0.5319 
     62 CA         35.3081  -48.8459  -55.2617 C.3       2 UNK         0.0286 
     63 CB         35.1693  -50.3457  -55.6130 C.3       2 UNK        -0.1963 
     64 N          34.2244  -48.0870  -55.8960 N.am      2 UNK        -0.4790 
     65 C          32.9238  -48.0802  -55.5653 C.2       1 UNK         0.5024 
     66 O          32.4409  -48.7648  -54.6588 O.2       1 UNK        -0.4888 
     67 H67        30.4712  -49.6666  -59.9300 H         1 UNK         0.0892 
     68 H68        30.4929  -50.7200  -58.5098 H         1 UNK         0.0892 
     69 H69        29.3941  -49.3413  -58.5769 H         1 UNK         0.0892 
     70 H70        30.1434  -48.1149  -56.8446 H         1 UNK         0.3107 
     71 H71        31.3382  -46.6778  -55.6575 H         1 UNK         0.0773 
     72 H72        33.1947  -46.4595  -58.0802 H         1 UNK         0.0680 
     73 H73        31.8760  -45.4139  -57.6719 H         1 UNK         0.0680 
     74 H74        32.4241  -43.1480  -57.0538 H         1 UNK         0.0650 
     75 H75        33.6256  -42.6226  -55.9036 H         1 UNK         0.0650 
     76 H76        33.4370  -43.7463  -53.4628 H         1 UNK         0.1397 
     77 H77        29.3924  -43.5734  -52.0353 H         1 UNK         0.1363 
     78 H78        30.1979  -43.2858  -56.2314 H         1 UNK         0.1355 
     79 H79        27.9906  -42.8433  -55.4295 H         1 UNK         0.0707 
     80 H80        27.7072  -42.5833  -53.7226 H         1 UNK         0.0707 
     81 H81        25.5524  -43.3660  -55.0838 H         1 UNK         0.1034 
     82 H82        24.9337  -44.7306  -54.1950 H         1 UNK         0.1034 
     83 H83        25.4793  -46.2413  -56.1088 H         1 UNK         0.0482 
     84 H84        22.5475  -45.0711  -58.2790 H         1 UNK         0.3460 
     85 H85        24.2300  -45.1945  -58.7357 H         1 UNK         0.3460 
     86 H86        26.8543  -45.6666  -57.6846 H         1 UNK         0.2989 
     87 H87        26.8835  -43.0429  -60.0031 H         1 UNK         0.0559 
     88 H88        29.2866  -43.8175  -58.2661 H         1 UNK         0.0848 
     89 H89        28.6609  -42.1788  -58.4143 H         1 UNK         0.0848 
     90 H90        29.3363  -42.9863  -59.8193 H         1 UNK         0.0848 
     91 H91        28.4225  -45.4443  -59.8100 H         1 UNK         0.3144 
     92 H92        26.3060  -47.4768  -61.6440 H         1 UNK         0.0727 
     93 H93        28.5632  -48.4352  -61.4918 H         1 UNK         0.0790 
     94 H94        29.0447  -47.2808  -60.2592 H         1 UNK         0.0790 
     95 H95        28.6928  -46.7349  -61.8964 H         1 UNK         0.0790 
     96 H96        25.8120  -48.8799  -59.9980 H         1 UNK         0.3215 
     97 H97        25.1457  -49.1777  -57.6550 H         1 UNK         0.0863 
     98 H98        26.1598  -51.4203  -57.3256 H         1 UNK         0.0808 
     99 H99        27.7423  -50.8141  -57.7899 H         1 UNK         0.0808 
    100 H100       26.4412  -50.8721  -58.9656 H         1 UNK         0.0808 
    101 H101       25.6131  -48.8276  -55.5410 H         1 UNK         0.3118 
    102 H102       26.7725  -47.9597  -53.7370 H         1 UNK         0.0546 
    103 H103       26.0994  -50.3764  -53.4878 H         1 UNK         0.0828 
    104 H104       26.9835  -49.8378  -52.0704 H         1 UNK         0.0828 
    105 H105       27.7845  -50.8361  -53.2815 H         1 UNK         0.0828 
    106 H106       29.5844  -48.6020  -53.9879 H         1 UNK         0.3005 
    107 H107       30.8346  -46.6287  -52.8987 H         1 UNK         0.1257 
    108 H108       30.5317  -46.8896  -49.8625 H         1 UNK         0.0775 
    109 H109       29.9431  -45.5163  -50.7447 H         1 UNK         0.0775 
    110 H110       31.2546  -43.4313  -50.4532 H         1 UNK         0.0840 
    111 H111       32.8854  -43.2444  -51.0369 H         1 UNK         0.0840 
    112 H112       31.9637  -48.5347  -52.7790 H         1 UNK         0.2987 
    113 H113       32.0858  -51.2671  -50.4861 H         1 UNK         0.0785 
    114 H114       32.0189  -52.5056  -52.6344 H         1 UNK         0.0798 
    115 H115       31.4003  -51.0819  -53.4724 H         1 UNK         0.0798 
    116 H116       30.4236  -51.8811  -52.2497 H         1 UNK         0.0798 
    117 H117       33.6753  -50.4597  -52.7484 H         1 UNK         0.3079 
    118 H118       36.0477  -48.5650  -51.1513 H         1 UNK         0.0794 
    119 H119       36.7715  -50.5672  -49.8635 H         1 UNK         0.0786 
    120 H120       37.7587  -50.3752  -51.3017 H         1 UNK         0.0786 
    121 H121       36.4902  -51.6008  -51.2573 H         1 UNK         0.0786 
    122 H122       36.0163  -50.4654  -53.3957 H         1 UNK         0.3032 
    123 H123       36.2382  -48.4815  -55.7008 H         1 UNK         0.1094 
    124 H124       35.0562  -50.4834  -56.6887 H         1 UNK         0.0794 
    125 H125       36.0525  -50.9132  -55.3179 H         1 UNK         0.0794 
    126 H126       34.3005  -50.8000  -55.1348 H         1 UNK         0.0794 
    127 H127       34.5088  -47.4480  -56.6259 H         1 UNK         0.3016 
@<TRIPOS>BOND
     1    1    2 1    
     2    1   67 1    
     3    1   68 1    
     4    1   69 1    
     5    2    3 2    
     6    2    4 am   BACKBONE|DICT|INTERRES
     7    4    5 1    
     8    4   70 1    
     9    5    6 1    
    10    5   65 1    
    11    5   71 1    
    12    6    7 1    
    13    6   72 1    
    14    6   73 1    
    15    7    8 1    
    16    8    9 1    
    17    8   74 1    
    18    8   75 1    
    19    9   10 ar   
    20    9   14 ar   
    21   10   11 ar   
    22   10   76 1    
    23   11   12 ar   
    24   11   48 1    
    25   12   13 ar   
    26   12   77 1    
    27   13   14 ar   
    28   13   15 1    
    29   14   78 1    
    30   15   16 1    
    31   15   79 1    
    32   15   80 1    
    33   16   17 1    
    34   17   18 1    
    35   17   81 1    
    36   17   82 1    
    37   18   19 1    
    38   18   22 1    
    39   18   83 1    
    40   19   20 am   BACKBONE|DICT|INTERRES
    41   19   21 2    
    42   20   84 1    
    43   20   85 1    
    44   22   23 am   BACKBONE|DICT|INTERRES
    45   22   86 1    
    46   23   24 2    
    47   23   25 1    
    48   25   26 1    
    49   25   27 1    
    50   25   87 1    
    51   26   88 1    
    52   26   89 1    
    53   26   90 1    
    54   27   28 am   BACKBONE|DICT|INTERRES
    55   27   91 1    
    56   28   29 2    
    57   28   30 1    
    58   30   31 1    
    59   30   32 1    
    60   30   92 1    
    61   31   93 1    
    62   31   94 1    
    63   31   95 1    
    64   32   33 am   BACKBONE|DICT|INTERRES
    65   32   96 1    
    66   33   34 2    
    67   33   35 1    
    68   35   36 1    
    69   35   37 1    
    70   35   97 1    
    71   36   98 1    
    72   36   99 1    
    73   36  100 1    
    74   37   38 am   BACKBONE|DICT|INTERRES
    75   37  101 1    
    76   38   39 2    
    77   38   40 1    
    78   40   41 1    
    79   40   42 1    
    80   40  102 1    
    81   41  103 1    
    82   41  104 1    
    83   41  105 1    
    84   42   43 am   BACKBONE|DICT|INTERRES
    85   42  106 1    
    86   43   44 2    
    87   43   45 1    
    88   45   46 1    
    89   45   49 1    
    90   45  107 1    
    91   46   47 1    
    92   46  108 1    
    93   46  109 1    
    94   47   48 1    
    95   48  110 1    
    96   48  111 1    
    97   49   50 am   BACKBONE|DICT|INTERRES
    98   49  112 1    
    99   50   51 2    
   100   50   52 1    
   101   52   53 1    
   102   52   54 1    
   103   52  113 1    
   104   53  114 1    
   105   53  115 1    
   106   53  116 1    
   107   54   55 am   BACKBONE|DICT|INTERRES
   108   54  117 1    
   109   55   56 2    
   110   55   57 1    
   111   57   58 1    
   112   57   59 1    
   113   57  118 1    
   114   58  119 1    
   115   58  120 1    
   116   58  121 1    
   117   59   60 am   BACKBONE|DICT|INTERRES
   118   59  122 1    
   119   60   61 2    
   120   60   62 1    
   121   62   63 1    
   122   62   64 1    
   123   62  123 1    
   124   63  124 1    
   125   63  125 1    
   126   63  126 1    
   127   64   65 am   BACKBONE|DICT|INTERRES
   128   64  127 1    
   129   65   66 2    
@<TRIPOS>SUBSTRUCTURE
     1 UNK         1 GROUP             0       ****    0 ROOT    
