@<TRIPOS>MOLECULE
3R134
127   129    1
SMALL
USER_CHARGES


@<TRIPOS>ATOM
      1 CA         37.6067  -46.6671  -53.5272 C.3       0 UNK        -0.1968 
      2 C          37.0536  -45.7026  -52.4800 C.2       0 UNK         0.4852 
      3 O          37.7703  -45.3685  -51.5378 O.2       0 UNK        -0.5359 
      4 N          35.8071  -45.2176  -52.5921 N.am      1 UNK        -0.4300 
      5 CA         34.8007  -45.5368  -53.6159 C.3       1 UNK         0.0863 
      6 C6         33.5626  -44.6144  -53.5120 C.3       11 UNK        -0.0953 
      7 S7         33.9901  -42.8409  -53.6091 S.3       11 UNK        -0.2369 
      8 C8         32.7634  -42.2129  -54.8108 C.3       11 UNK         0.0226 
      9 C9         31.2919  -42.3515  -54.4072 C.ar      11 UNK        -0.0699 
     10 C10        30.8849  -42.6932  -53.1110 C.ar      11 UNK        -0.0804 
     11 C11        29.5330  -42.8667  -52.8051 C.ar      11 UNK        -0.0871 
     12 C12        28.5703  -42.6561  -53.7951 C.ar      11 UNK        -0.1008 
     13 C13        28.9555  -42.2866  -55.0864 C.ar      11 UNK        -0.0735 
     14 C14        30.3139  -42.1312  -55.3814 C.ar      11 UNK        -0.0945 
     15 C15        27.9030  -42.0634  -56.1624 C.3       11 UNK         0.0169 
     16 S16        27.5403  -43.5983  -57.0713 S.3       11 UNK        -0.2669 
     17 C17        29.0819  -43.8173  -58.0261 C.3       11 UNK        -0.0850 
     18 CA         28.8529  -44.5350  -59.3780 C.3       10 UNK         0.0855 
     19 C          30.1557  -44.5348  -60.2260 C.2       10 UNK         0.5543 
     20 N          30.4055  -43.4670  -60.9711 N.am      10 UNK        -0.7343 
     21 O          30.9569  -45.4660  -60.1833 O.2       10 UNK        -0.5027 
     22 N          28.2957  -45.8781  -59.1748 N.am      10 UNK        -0.4495 
     23 C          27.8335  -46.6747  -60.1472 C.2       10 UNK         0.4903 
     24 O          27.7904  -46.3578  -61.3366 O.2       10 UNK        -0.4860 
     25 CA         27.3101  -48.0570  -59.7268 C.3       9 UNK         0.0227 
     26 CB         28.4024  -49.1257  -59.8928 C.3       9 UNK        -0.1964 
     27 N          26.8195  -48.0773  -58.3491 N.am      9 UNK        -0.4231 
     28 C          25.6399  -47.5857  -57.9455 C.2       9 UNK         0.5014 
     29 O          24.8243  -47.0563  -58.7034 O.2       9 UNK        -0.5270 
     30 CA         25.3222  -47.7286  -56.4421 C.3       8 UNK         0.0284 
     31 CB         23.8175  -47.5970  -56.1264 C.3       8 UNK        -0.1977 
     32 N          25.8736  -48.9576  -55.8546 N.am      8 UNK        -0.4342 
     33 C          25.6336  -50.2257  -56.2295 C.2       8 UNK         0.5039 
     34 O          24.8127  -50.5420  -57.0916 O.2       8 UNK        -0.5547 
     35 CA         26.4750  -51.3355  -55.5722 C.3       7 UNK         0.0281 
     36 CB         27.3541  -52.0329  -56.6253 C.3       7 UNK        -0.1963 
     37 N          27.3300  -50.8344  -54.4915 N.am      7 UNK        -0.4444 
     38 C          26.9337  -50.7272  -53.2163 C.2       7 UNK         0.5104 
     39 O          25.8316  -51.0960  -52.8091 O.2       7 UNK        -0.5100 
     40 CA         27.9136  -50.0733  -52.2273 C.3       6 UNK         0.0396 
     41 CB         28.9013  -51.1115  -51.6752 C.3       6 UNK        -0.1801 
     42 N          28.6494  -48.9236  -52.7655 N.am      6 UNK        -0.4747 
     43 C          28.0830  -47.7867  -53.2024 C.2       6 UNK         0.5012 
     44 O          26.8707  -47.6405  -53.3546 O.2       6 UNK        -0.5003 
     45 CA         29.0343  -46.6218  -53.5313 C.3       5 UNK         0.0782 
     46 C46        29.6306  -45.9985  -52.2420 C.3       11 UNK        -0.0868 
     47 S47        28.3989  -44.9706  -51.3631 S.3       11 UNK        -0.2515 
     48 C48        29.1249  -43.2982  -51.4035 C.3       11 UNK         0.0199 
     49 N          30.0699  -47.0749  -54.4562 N.am      5 UNK        -0.4607 
     50 C          29.8888  -47.2237  -55.7760 C.2       4 UNK         0.5031 
     51 O          28.8601  -46.9130  -56.3775 O.2       4 UNK        -0.5119 
     52 CA         31.0389  -47.8788  -56.5565 C.3       4 UNK         0.0263 
     53 CB         32.0598  -46.8225  -57.0044 C.3       4 UNK        -0.1967 
     54 N          31.7110  -48.9383  -55.7986 N.am      4 UNK        -0.4237 
     55 C          31.1070  -50.0666  -55.3915 C.2       3 UNK         0.4908 
     56 O          29.9295  -50.3356  -55.6273 O.2       3 UNK        -0.5102 
     57 CA         31.9293  -51.0473  -54.5403 C.3       3 UNK         0.0241 
     58 CB         32.6414  -52.0672  -55.4424 C.3       3 UNK        -0.1971 
     59 N          32.9093  -50.4101  -53.6583 N.am      3 UNK        -0.4139 
     60 C          32.6593  -49.4605  -52.7449 C.2       2 UNK         0.5016 
     61 O          31.5426  -48.9810  -52.5341 O.2       2 UNK        -0.5319 
     62 CA         33.8702  -48.9137  -51.9643 C.3       2 UNK         0.0286 
     63 CB         35.1451  -49.7797  -52.0892 C.3       2 UNK        -0.1963 
     64 N          34.1829  -47.5242  -52.3196 N.am      2 UNK        -0.4790 
     65 C          34.3625  -47.0135  -53.5495 C.2       1 UNK         0.5024 
     66 O          34.2368  -47.6548  -54.5936 O.2       1 UNK        -0.4888 
     67 H67        37.2653  -47.6825  -53.3291 H         1 UNK         0.0892 
     68 H68        37.3118  -46.3878  -54.5376 H         1 UNK         0.0892 
     69 H69        38.6961  -46.6713  -53.4981 H         1 UNK         0.0892 
     70 H70        35.5008  -44.5485  -51.9003 H         1 UNK         0.3107 
     71 H71        35.2519  -45.3707  -54.5958 H         1 UNK         0.0773 
     72 H72        32.8465  -44.8497  -54.3013 H         1 UNK         0.0680 
     73 H73        33.0389  -44.7808  -52.5688 H         1 UNK         0.0680 
     74 H74        32.9732  -41.1576  -54.9892 H         1 UNK         0.0650 
     75 H75        32.9262  -42.7254  -55.7603 H         1 UNK         0.0650 
     76 H76        31.6153  -42.8472  -52.3309 H         1 UNK         0.1397 
     77 H77        27.5229  -42.7934  -53.5628 H         1 UNK         0.1363 
     78 H78        30.6156  -41.8471  -56.3797 H         1 UNK         0.1355 
     79 H79        28.2232  -41.2855  -56.8573 H         1 UNK         0.0707 
     80 H80        26.9803  -41.7001  -55.7073 H         1 UNK         0.0707 
     81 H81        29.5204  -42.8345  -58.2053 H         1 UNK         0.1034 
     82 H82        29.7963  -44.3659  -57.4099 H         1 UNK         0.1034 
     83 H83        28.1036  -43.9685  -59.9351 H         1 UNK         0.0482 
     84 H84        29.7589  -42.6946  -61.0127 H         1 UNK         0.3460 
     85 H85        31.2520  -43.4401  -61.5179 H         1 UNK         0.3460 
     86 H86        28.3093  -46.2218  -58.2204 H         1 UNK         0.2989 
     87 H87        26.4820  -48.3150  -60.3904 H         1 UNK         0.0559 
     88 H88        29.2679  -48.9230  -59.2628 H         1 UNK         0.0848 
     89 H89        28.7548  -49.1633  -60.9245 H         1 UNK         0.0848 
     90 H90        28.0286  -50.1189  -59.6428 H         1 UNK         0.0848 
     91 H91        27.4463  -48.4352  -57.6420 H         1 UNK         0.3144 
     92 H92        25.8364  -46.9015  -55.9495 H         1 UNK         0.0727 
     93 H93        23.4341  -46.6273  -56.4461 H         1 UNK         0.0790 
     94 H94        23.6299  -47.6812  -55.0560 H         1 UNK         0.0790 
     95 H95        23.2294  -48.3629  -56.6328 H         1 UNK         0.0790 
     96 H96        26.5173  -48.8064  -55.0862 H         1 UNK         0.3215 
     97 H97        25.7805  -52.0775  -55.1721 H         1 UNK         0.0863 
     98 H98        27.9814  -52.8025  -56.1754 H         1 UNK         0.0808 
     99 H99        28.0060  -51.3268  -57.1407 H         1 UNK         0.0808 
    100 H100       26.7405  -52.5183  -57.3853 H         1 UNK         0.0808 
    101 H101       28.2674  -50.5350  -54.7556 H         1 UNK         0.3118 
    102 H102       27.3232  -49.7009  -51.3875 H         1 UNK         0.0546 
    103 H103       29.5007  -51.5571  -52.4669 H         1 UNK         0.0828 
    104 H104       28.3718  -51.9234  -51.1750 H         1 UNK         0.0828 
    105 H105       29.5806  -50.6696  -50.9461 H         1 UNK         0.0828 
    106 H106       29.6645  -48.9592  -52.6907 H         1 UNK         0.3005 
    107 H107       28.4512  -45.8502  -54.0422 H         1 UNK         0.1257 
    108 H108       30.4987  -45.3889  -52.4903 H         1 UNK         0.0775 
    109 H109       30.0058  -46.7641  -51.5600 H         1 UNK         0.0775 
    110 H110       28.3985  -42.5877  -51.0067 H         1 UNK         0.0840 
    111 H111       29.9779  -43.2714  -50.7235 H         1 UNK         0.0840 
    112 H112       30.9131  -47.4440  -54.0367 H         1 UNK         0.2987 
    113 H113       30.6121  -48.3360  -57.4501 H         1 UNK         0.0785 
    114 H114       32.5160  -46.3121  -56.1574 H         1 UNK         0.0798 
    115 H115       31.5844  -46.0609  -57.6222 H         1 UNK         0.0798 
    116 H116       32.8579  -47.2672  -57.5988 H         1 UNK         0.0798 
    117 H117       32.6711  -48.7654  -55.5203 H         1 UNK         0.3079 
    118 H118       31.2311  -51.5930  -53.9061 H         1 UNK         0.0794 
    119 H119       31.9296  -52.5739  -56.0960 H         1 UNK         0.0786 
    120 H120       33.1418  -52.8372  -54.8548 H         1 UNK         0.0786 
    121 H121       33.3878  -51.5914  -56.0800 H         1 UNK         0.0786 
    122 H122       33.8682  -50.7052  -53.7701 H         1 UNK         0.3032 
    123 H123       33.5707  -48.9136  -50.9148 H         1 UNK         0.1094 
    124 H124       35.9311  -49.4077  -51.4317 H         1 UNK         0.0794 
    125 H125       34.9540  -50.8134  -51.7968 H         1 UNK         0.0794 
    126 H126       35.5470  -49.7847  -53.1032 H         1 UNK         0.0794 
    127 H127       34.2935  -46.8948  -51.5366 H         1 UNK         0.3016 
@<TRIPOS>BOND
     1    1    2 1    
     2    1   67 1    
     3    1   68 1    
     4    1   69 1    
     5    2    3 2    
     6    2    4 am   BACKBONE|DICT|INTERRES
     7    4    5 1    
     8    4   70 1    
     9    5    6 1    
    10    5   65 1    
    11    5   71 1    
    12    6    7 1    
    13    6   72 1    
    14    6   73 1    
    15    7    8 1    
    16    8    9 1    
    17    8   74 1    
    18    8   75 1    
    19    9   10 ar   
    20    9   14 ar   
    21   10   11 ar   
    22   10   76 1    
    23   11   12 ar   
    24   11   48 1    
    25   12   13 ar   
    26   12   77 1    
    27   13   14 ar   
    28   13   15 1    
    29   14   78 1    
    30   15   16 1    
    31   15   79 1    
    32   15   80 1    
    33   16   17 1    
    34   17   18 1    
    35   17   81 1    
    36   17   82 1    
    37   18   19 1    
    38   18   22 1    
    39   18   83 1    
    40   19   20 am   BACKBONE|DICT|INTERRES
    41   19   21 2    
    42   20   84 1    
    43   20   85 1    
    44   22   23 am   BACKBONE|DICT|INTERRES
    45   22   86 1    
    46   23   24 2    
    47   23   25 1    
    48   25   26 1    
    49   25   27 1    
    50   25   87 1    
    51   26   88 1    
    52   26   89 1    
    53   26   90 1    
    54   27   28 am   BACKBONE|DICT|INTERRES
    55   27   91 1    
    56   28   29 2    
    57   28   30 1    
    58   30   31 1    
    59   30   32 1    
    60   30   92 1    
    61   31   93 1    
    62   31   94 1    
    63   31   95 1    
    64   32   33 am   BACKBONE|DICT|INTERRES
    65   32   96 1    
    66   33   34 2    
    67   33   35 1    
    68   35   36 1    
    69   35   37 1    
    70   35   97 1    
    71   36   98 1    
    72   36   99 1    
    73   36  100 1    
    74   37   38 am   BACKBONE|DICT|INTERRES
    75   37  101 1    
    76   38   39 2    
    77   38   40 1    
    78   40   41 1    
    79   40   42 1    
    80   40  102 1    
    81   41  103 1    
    82   41  104 1    
    83   41  105 1    
    84   42   43 am   BACKBONE|DICT|INTERRES
    85   42  106 1    
    86   43   44 2    
    87   43   45 1    
    88   45   46 1    
    89   45   49 1    
    90   45  107 1    
    91   46   47 1    
    92   46  108 1    
    93   46  109 1    
    94   47   48 1    
    95   48  110 1    
    96   48  111 1    
    97   49   50 am   BACKBONE|DICT|INTERRES
    98   49  112 1    
    99   50   51 2    
   100   50   52 1    
   101   52   53 1    
   102   52   54 1    
   103   52  113 1    
   104   53  114 1    
   105   53  115 1    
   106   53  116 1    
   107   54   55 am   BACKBONE|DICT|INTERRES
   108   54  117 1    
   109   55   56 2    
   110   55   57 1    
   111   57   58 1    
   112   57   59 1    
   113   57  118 1    
   114   58  119 1    
   115   58  120 1    
   116   58  121 1    
   117   59   60 am   BACKBONE|DICT|INTERRES
   118   59  122 1    
   119   60   61 2    
   120   60   62 1    
   121   62   63 1    
   122   62   64 1    
   123   62  123 1    
   124   63  124 1    
   125   63  125 1    
   126   63  126 1    
   127   64   65 am   BACKBONE|DICT|INTERRES
   128   64  127 1    
   129   65   66 2    
@<TRIPOS>SUBSTRUCTURE
     1 UNK         1 GROUP             0       ****    0 ROOT    
