@<TRIPOS>MOLECULE
3R134
127   129    1
SMALL
USER_CHARGES


@<TRIPOS>ATOM
      1 CA         36.4185  -42.7770  -48.2914 C.3       0 UNK        -0.1968 
      2 C          36.2851  -42.9424  -49.7983 C.2       0 UNK         0.4852 
      3 O          36.4700  -41.9747  -50.5383 O.2       0 UNK        -0.5359 
      4 N          35.9723  -44.1585  -50.2551 N.am      1 UNK        -0.4300 
      5 CA         35.8129  -44.5303  -51.6595 C.3       1 UNK         0.0863 
      6 C6         34.4882  -44.0087  -52.2849 C.3       11 UNK        -0.0953 
      7 S7         32.9655  -44.6194  -51.4726 S.3       11 UNK        -0.2369 
      8 C8         31.7147  -43.4590  -52.1221 C.3       11 UNK         0.0226 
      9 C9         30.9077  -44.0416  -53.2784 C.ar      11 UNK        -0.0699 
     10 C10        31.5453  -44.4958  -54.4370 C.ar      11 UNK        -0.0804 
     11 C11        30.8090  -45.0366  -55.4934 C.ar      11 UNK        -0.0871 
     12 C12        29.4164  -45.0880  -55.4047 C.ar      11 UNK        -0.1008 
     13 C13        28.7596  -44.6060  -54.2687 C.ar      11 UNK        -0.0735 
     14 C14        29.5111  -44.0996  -53.2029 C.ar      11 UNK        -0.0945 
     15 C15        27.2386  -44.6367  -54.1922 C.3       11 UNK         0.0169 
     16 S16        26.4971  -42.9894  -54.4342 S.3       11 UNK        -0.2669 
     17 C17        26.9475  -42.5951  -56.1622 C.3       11 UNK        -0.0850 
     18 CA         25.7333  -42.5926  -57.1370 C.3       10 UNK         0.0855 
     19 C          26.1040  -42.0164  -58.5393 C.2       10 UNK         0.5543 
     20 N          25.5720  -42.5407  -59.6366 N.am      10 UNK        -0.7343 
     21 O          26.8585  -41.0514  -58.6351 O.2       10 UNK        -0.5027 
     22 N          24.9973  -43.8722  -57.1673 N.am      10 UNK        -0.4495 
     23 C          25.4768  -45.0601  -57.5596 C.2       10 UNK         0.4903 
     24 O          26.6454  -45.2467  -57.9044 O.2       10 UNK        -0.4860 
     25 CA         24.4830  -46.2395  -57.5138 C.3       9 UNK         0.0227 
     26 CB         23.0674  -45.8676  -58.0122 C.3       9 UNK        -0.1964 
     27 N          24.9897  -47.4342  -58.2011 N.am      9 UNK        -0.4231 
     28 C          25.2266  -47.5948  -59.5142 C.2       9 UNK         0.5014 
     29 O          24.9417  -46.7520  -60.3672 O.2       9 UNK        -0.5270 
     30 CA         25.8979  -48.9089  -59.9697 C.3       8 UNK         0.0284 
     31 CB         27.1156  -48.6232  -60.8674 C.3       8 UNK        -0.1977 
     32 N          26.3326  -49.7410  -58.8445 N.am      8 UNK        -0.4342 
     33 C          25.6172  -50.7348  -58.2951 C.2       8 UNK         0.5039 
     34 O          24.5378  -51.1248  -58.7408 O.2       8 UNK        -0.5547 
     35 CA         26.1740  -51.3850  -57.0097 C.3       7 UNK         0.0281 
     36 CB         26.9381  -52.6750  -57.3471 C.3       7 UNK        -0.1963 
     37 N          27.0497  -50.4981  -56.2375 N.am      7 UNK        -0.4444 
     38 C          26.6820  -49.3148  -55.7240 C.2       7 UNK         0.5104 
     39 O          25.5170  -48.9198  -55.7063 O.2       7 UNK        -0.5100 
     40 CA         27.7918  -48.3717  -55.2271 C.3       6 UNK         0.0396 
     41 CB         27.7259  -48.2119  -53.7014 C.3       6 UNK        -0.1801 
     42 N          29.1476  -48.7588  -55.6388 N.am      6 UNK        -0.4747 
     43 C          29.5809  -48.8041  -56.9119 C.2       6 UNK         0.5012 
     44 O          28.8664  -48.5090  -57.8705 O.2       6 UNK        -0.5003 
     45 CA         31.0109  -49.3227  -57.1870 C.3       5 UNK         0.0782 
     46 C46        31.9589  -48.1986  -57.6735 C.3       11 UNK        -0.0868 
     47 S47        32.4833  -47.0544  -56.3476 S.3       11 UNK        -0.2515 
     48 C48        31.5221  -45.5551  -56.7313 C.3       11 UNK         0.0199 
     49 N          31.5921  -50.0646  -56.0670 N.am      5 UNK        -0.4607 
     50 C          31.1624  -51.2402  -55.5937 C.2       4 UNK         0.5031 
     51 O          30.2422  -51.8842  -56.0982 O.2       4 UNK        -0.5119 
     52 CA         31.8488  -51.7550  -54.3149 C.3       4 UNK         0.0263 
     53 CB         32.9798  -52.7326  -54.6699 C.3       4 UNK        -0.1967 
     54 N          32.3849  -50.6856  -53.4616 N.am      4 UNK        -0.4237 
     55 C          31.6651  -49.7129  -52.8874 C.2       3 UNK         0.4908 
     56 O          30.4470  -49.6156  -53.0183 O.2       3 UNK        -0.5102 
     57 CA         32.4062  -48.6513  -52.0555 C.3       3 UNK         0.0241 
     58 CB         32.5971  -49.1249  -50.6023 C.3       3 UNK        -0.1971 
     59 N          33.6707  -48.1641  -52.6260 N.am      3 UNK        -0.4139 
     60 C          34.8205  -48.8228  -52.8383 C.2       2 UNK         0.5016 
     61 O          34.9666  -50.0325  -52.6580 O.2       2 UNK        -0.5319 
     62 CA         36.0155  -47.9951  -53.3481 C.3       2 UNK         0.0286 
     63 CB         36.1724  -48.1651  -54.8681 C.3       2 UNK        -0.1963 
     64 N          35.9305  -46.5642  -53.0279 N.am      2 UNK        -0.4790 
     65 C          35.9875  -46.0553  -51.7879 C.2       1 UNK         0.5024 
     66 O          36.1574  -46.7423  -50.7759 O.2       1 UNK        -0.4888 
     67 H67        37.4241  -42.4427  -48.0377 H         1 UNK         0.0892 
     68 H68        35.7098  -42.0313  -47.9321 H         1 UNK         0.0892 
     69 H69        36.2268  -43.7095  -47.7607 H         1 UNK         0.0892 
     70 H70        35.8794  -44.9442  -49.6223 H         1 UNK         0.3107 
     71 H71        36.6456  -44.0879  -52.2107 H         1 UNK         0.0773 
     72 H72        34.4529  -44.2538  -53.3454 H         1 UNK         0.0680 
     73 H73        34.4841  -42.9188  -52.2436 H         1 UNK         0.0680 
     74 H74        32.1853  -42.5295  -52.4437 H         1 UNK         0.0650 
     75 H75        31.0520  -43.1910  -51.2979 H         1 UNK         0.0650 
     76 H76        32.6195  -44.4457  -54.5199 H         1 UNK         0.1397 
     77 H77        28.8417  -45.4916  -56.2277 H         1 UNK         0.1363 
     78 H78        29.0019  -43.7342  -52.3215 H         1 UNK         0.1355 
     79 H79        26.8245  -45.3244  -54.9289 H         1 UNK         0.0707 
     80 H80        26.9354  -45.0193  -53.2167 H         1 UNK         0.0707 
     81 H81        27.7202  -43.2721  -56.5234 H         1 UNK         0.1034 
     82 H82        27.4160  -41.6096  -56.1410 H         1 UNK         0.1034 
     83 H83        25.0164  -41.8730  -56.7401 H         1 UNK         0.0482 
     84 H84        24.9596  -43.3381  -59.5759 H         1 UNK         0.3460 
     85 H85        25.8091  -42.1516  -60.5355 H         1 UNK         0.3460 
     86 H86        24.0280  -43.8141  -56.8914 H         1 UNK         0.2989 
     87 H87        24.3980  -46.5203  -56.4633 H         1 UNK         0.0559 
     88 H88        22.5826  -45.1531  -57.3466 H         1 UNK         0.0848 
     89 H89        22.4213  -46.7446  -58.0535 H         1 UNK         0.0848 
     90 H90        23.0880  -45.4244  -59.0084 H         1 UNK         0.0848 
     91 H91        25.2594  -48.1852  -57.5758 H         1 UNK         0.3144 
     92 H92        25.1630  -49.4530  -60.5665 H         1 UNK         0.0727 
     93 H93        27.5979  -49.5462  -61.1896 H         1 UNK         0.0790 
     94 H94        27.8611  -48.0157  -60.3527 H         1 UNK         0.0790 
     95 H95        26.8215  -48.0823  -61.7677 H         1 UNK         0.0790 
     96 H96        27.2115  -49.4658  -58.4130 H         1 UNK         0.3215 
     97 H97        25.3215  -51.6423  -56.3775 H         1 UNK         0.0863 
     98 H98        27.2690  -53.1887  -56.4442 H         1 UNK         0.0808 
     99 H99        27.8189  -52.4742  -57.9587 H         1 UNK         0.0808 
    100 H100       26.3061  -53.3702  -57.9017 H         1 UNK         0.0808 
    101 H101       28.0278  -50.7530  -56.1899 H         1 UNK         0.3118 
    102 H102       27.5883  -47.4000  -55.6774 H         1 UNK         0.0546 
    103 H103       27.8549  -49.1669  -53.1912 H         1 UNK         0.0828 
    104 H104       26.7607  -47.8084  -53.3931 H         1 UNK         0.0828 
    105 H105       28.4939  -47.5285  -53.3384 H         1 UNK         0.0828 
    106 H106       29.7763  -49.0403  -54.8930 H         1 UNK         0.3005 
    107 H107       30.9052  -50.0328  -58.0107 H         1 UNK         0.1257 
    108 H108       32.8648  -48.6515  -58.0793 H         1 UNK         0.0775 
    109 H109       31.5206  -47.6501  -58.5092 H         1 UNK         0.0775 
    110 H110       32.1957  -44.7874  -57.1145 H         1 UNK         0.0840 
    111 H111       30.7997  -45.7503  -57.5249 H         1 UNK         0.0840 
    112 H112       32.3405  -49.5959  -55.5777 H         1 UNK         0.2987 
    113 H113       31.0952  -52.2928  -53.7361 H         1 UNK         0.0785 
    114 H114       33.4170  -53.1749  -53.7745 H         1 UNK         0.0798 
    115 H115       33.7792  -52.2399  -55.2250 H         1 UNK         0.0798 
    116 H116       32.6091  -53.5522  -55.2873 H         1 UNK         0.0798 
    117 H117       33.3871  -50.6850  -53.2773 H         1 UNK         0.3079 
    118 H118       31.7524  -47.7775  -52.0270 H         1 UNK         0.0794 
    119 H119       31.6407  -49.3931  -50.1514 H         1 UNK         0.0786 
    120 H120       33.0372  -48.3399  -49.9869 H         1 UNK         0.0786 
    121 H121       33.2428  -50.0013  -50.5396 H         1 UNK         0.0786 
    122 H122       33.6751  -47.1787  -52.8496 H         1 UNK         0.3032 
    123 H123       36.9091  -48.3957  -52.8637 H         1 UNK         0.1094 
    124 H124       35.3198  -47.7574  -55.4119 H         1 UNK         0.0794 
    125 H125       37.0720  -47.6689  -55.2325 H         1 UNK         0.0794 
    126 H126       36.2559  -49.2192  -55.1373 H         1 UNK         0.0794 
    127 H127       35.8096  -45.9351  -53.8090 H         1 UNK         0.3016 
@<TRIPOS>BOND
     1    1    2 1    
     2    1   67 1    
     3    1   68 1    
     4    1   69 1    
     5    2    3 2    
     6    2    4 am   BACKBONE|DICT|INTERRES
     7    4    5 1    
     8    4   70 1    
     9    5    6 1    
    10    5   65 1    
    11    5   71 1    
    12    6    7 1    
    13    6   72 1    
    14    6   73 1    
    15    7    8 1    
    16    8    9 1    
    17    8   74 1    
    18    8   75 1    
    19    9   10 ar   
    20    9   14 ar   
    21   10   11 ar   
    22   10   76 1    
    23   11   12 ar   
    24   11   48 1    
    25   12   13 ar   
    26   12   77 1    
    27   13   14 ar   
    28   13   15 1    
    29   14   78 1    
    30   15   16 1    
    31   15   79 1    
    32   15   80 1    
    33   16   17 1    
    34   17   18 1    
    35   17   81 1    
    36   17   82 1    
    37   18   19 1    
    38   18   22 1    
    39   18   83 1    
    40   19   20 am   BACKBONE|DICT|INTERRES
    41   19   21 2    
    42   20   84 1    
    43   20   85 1    
    44   22   23 am   BACKBONE|DICT|INTERRES
    45   22   86 1    
    46   23   24 2    
    47   23   25 1    
    48   25   26 1    
    49   25   27 1    
    50   25   87 1    
    51   26   88 1    
    52   26   89 1    
    53   26   90 1    
    54   27   28 am   BACKBONE|DICT|INTERRES
    55   27   91 1    
    56   28   29 2    
    57   28   30 1    
    58   30   31 1    
    59   30   32 1    
    60   30   92 1    
    61   31   93 1    
    62   31   94 1    
    63   31   95 1    
    64   32   33 am   BACKBONE|DICT|INTERRES
    65   32   96 1    
    66   33   34 2    
    67   33   35 1    
    68   35   36 1    
    69   35   37 1    
    70   35   97 1    
    71   36   98 1    
    72   36   99 1    
    73   36  100 1    
    74   37   38 am   BACKBONE|DICT|INTERRES
    75   37  101 1    
    76   38   39 2    
    77   38   40 1    
    78   40   41 1    
    79   40   42 1    
    80   40  102 1    
    81   41  103 1    
    82   41  104 1    
    83   41  105 1    
    84   42   43 am   BACKBONE|DICT|INTERRES
    85   42  106 1    
    86   43   44 2    
    87   43   45 1    
    88   45   46 1    
    89   45   49 1    
    90   45  107 1    
    91   46   47 1    
    92   46  108 1    
    93   46  109 1    
    94   47   48 1    
    95   48  110 1    
    96   48  111 1    
    97   49   50 am   BACKBONE|DICT|INTERRES
    98   49  112 1    
    99   50   51 2    
   100   50   52 1    
   101   52   53 1    
   102   52   54 1    
   103   52  113 1    
   104   53  114 1    
   105   53  115 1    
   106   53  116 1    
   107   54   55 am   BACKBONE|DICT|INTERRES
   108   54  117 1    
   109   55   56 2    
   110   55   57 1    
   111   57   58 1    
   112   57   59 1    
   113   57  118 1    
   114   58  119 1    
   115   58  120 1    
   116   58  121 1    
   117   59   60 am   BACKBONE|DICT|INTERRES
   118   59  122 1    
   119   60   61 2    
   120   60   62 1    
   121   62   63 1    
   122   62   64 1    
   123   62  123 1    
   124   63  124 1    
   125   63  125 1    
   126   63  126 1    
   127   64   65 am   BACKBONE|DICT|INTERRES
   128   64  127 1    
   129   65   66 2    
@<TRIPOS>SUBSTRUCTURE
     1 UNK         1 GROUP             0       ****    0 ROOT    
