@<TRIPOS>MOLECULE
3R134
127   129    1
SMALL
USER_CHARGES


@<TRIPOS>ATOM
      1 CA         38.3267  -44.2549  -56.5691 C.3       0 UNK        -0.1968 
      2 C          36.9273  -44.8526  -56.5491 C.2       0 UNK         0.4852 
      3 O          36.3302  -45.0450  -57.6097 O.2       0 UNK        -0.5359 
      4 N          36.3983  -45.1401  -55.3525 N.am      1 UNK        -0.4300 
      5 CA         35.0974  -45.7817  -55.1452 C.3       1 UNK         0.0863 
      6 C6         34.6201  -45.6086  -53.6816 C.3       11 UNK        -0.0953 
      7 S7         32.8097  -45.7505  -53.5182 S.3       11 UNK        -0.2369 
      8 C8         32.3606  -43.9943  -53.3804 C.3       11 UNK         0.0226 
      9 C9         30.8677  -43.8207  -53.1627 C.ar      11 UNK        -0.0699 
     10 C10        30.3247  -44.0096  -51.8899 C.ar      11 UNK        -0.0804 
     11 C11        28.9531  -43.8572  -51.6778 C.ar      11 UNK        -0.0871 
     12 C12        28.1285  -43.4894  -52.7435 C.ar      11 UNK        -0.1008 
     13 C13        28.6551  -43.2898  -54.0227 C.ar      11 UNK        -0.0735 
     14 C14        30.0311  -43.4669  -54.2256 C.ar      11 UNK        -0.0945 
     15 C15        27.6866  -42.9142  -55.1430 C.3       11 UNK         0.0169 
     16 S16        28.4476  -42.1826  -56.6333 S.3       11 UNK        -0.2669 
     17 C17        26.9518  -41.7287  -57.5830 C.3       11 UNK        -0.0850 
     18 CA         26.5711  -42.7461  -58.6909 C.3       10 UNK         0.0855 
     19 C          27.4945  -42.6425  -59.9414 C.2       10 UNK         0.5543 
     20 N          28.1689  -43.7016  -60.3729 N.am      10 UNK        -0.7343 
     21 O          27.5852  -41.5766  -60.5459 O.2       10 UNK        -0.5027 
     22 N          26.4220  -44.1012  -58.1420 N.am      10 UNK        -0.4495 
     23 C          25.6298  -45.0563  -58.6388 C.2       10 UNK         0.4903 
     24 O          24.8433  -44.8725  -59.5694 O.2       10 UNK        -0.4860 
     25 CA         25.7336  -46.4494  -57.9807 C.3       9 UNK         0.0227 
     26 CB         25.2805  -47.5757  -58.9331 C.3       9 UNK        -0.1964 
     27 N          27.0557  -46.7703  -57.4202 N.am      9 UNK        -0.4231 
     28 C          28.2326  -46.7714  -58.0681 C.2       9 UNK         0.5014 
     29 O          28.3901  -46.3581  -59.2176 O.2       9 UNK        -0.5270 
     30 CA         29.4359  -47.3581  -57.3129 C.3       8 UNK         0.0284 
     31 CB         29.9904  -46.3576  -56.2859 C.3       8 UNK        -0.1977 
     32 N          29.1136  -48.6250  -56.6508 N.am      8 UNK        -0.4342 
     33 C          28.7677  -49.7559  -57.2864 C.2       8 UNK         0.5039 
     34 O          28.7796  -49.8878  -58.5108 O.2       8 UNK        -0.5547 
     35 CA         28.2959  -50.9314  -56.4157 C.3       7 UNK         0.0281 
     36 CB         29.4792  -51.7559  -55.8902 C.3       7 UNK        -0.1963 
     37 N          27.4789  -50.4728  -55.2930 N.am      7 UNK        -0.4444 
     38 C          26.1801  -50.1581  -55.3855 C.2       7 UNK         0.5104 
     39 O          25.5066  -50.3136  -56.4036 O.2       7 UNK        -0.5100 
     40 CA         25.5133  -49.5692  -54.1303 C.3       6 UNK         0.0396 
     41 CB         24.7784  -50.6693  -53.3484 C.3       6 UNK        -0.1801 
     42 N          26.4525  -48.8873  -53.2355 N.am      6 UNK        -0.4747 
     43 C          27.0525  -47.7180  -53.5034 C.2       6 UNK         0.5012 
     44 O          26.8933  -47.0887  -54.5506 O.2       6 UNK        -0.5003 
     45 CA         28.0238  -47.1957  -52.4269 C.3       5 UNK         0.0782 
     46 C46        27.2296  -46.5360  -51.2680 C.3       11 UNK        -0.0868 
     47 S47        28.3044  -45.9011  -49.9336 S.3       11 UNK        -0.2515 
     48 C48        28.3579  -44.1194  -50.3038 C.3       11 UNK         0.0199 
     49 N          28.9337  -48.2404  -51.9399 N.am      5 UNK        -0.4607 
     50 C          29.7979  -48.9426  -52.6820 C.2       4 UNK         0.5031 
     51 O          29.8898  -48.8544  -53.9077 O.2       4 UNK        -0.5119 
     52 CA         30.6541  -49.9573  -51.9206 C.3       4 UNK         0.0263 
     53 CB         29.8928  -51.2832  -51.7428 C.3       4 UNK        -0.1967 
     54 N          31.9052  -50.2062  -52.6340 N.am      4 UNK        -0.4237 
     55 C          33.0801  -50.4700  -52.0510 C.2       3 UNK         0.4908 
     56 O          33.2310  -50.5107  -50.8288 O.2       3 UNK        -0.5102 
     57 CA         34.3085  -50.7433  -52.9433 C.3       3 UNK         0.0241 
     58 CB         34.4917  -52.2578  -53.1665 C.3       3 UNK        -0.1971 
     59 N          34.3657  -50.0084  -54.2157 N.am      3 UNK        -0.4139 
     60 C          33.5712  -50.1077  -55.2892 C.2       2 UNK         0.5016 
     61 O          32.5931  -50.8514  -55.3407 O.2       2 UNK        -0.5319 
     62 CA         33.9154  -49.2043  -56.4913 C.3       2 UNK         0.0286 
     63 CB         32.8643  -49.2974  -57.6120 C.3       2 UNK        -0.1963 
     64 N          34.0686  -47.7987  -56.1012 N.am      2 UNK        -0.4790 
     65 C          35.1616  -47.2717  -55.5356 C.2       1 UNK         0.5024 
     66 O          36.1690  -47.9325  -55.2679 O.2       1 UNK        -0.4888 
     67 H67        39.0032  -44.9033  -57.1252 H         1 UNK         0.0892 
     68 H68        38.3115  -43.2800  -57.0556 H         1 UNK         0.0892 
     69 H69        38.7301  -44.1259  -55.5648 H         1 UNK         0.0892 
     70 H70        36.9514  -44.9927  -54.5204 H         1 UNK         0.3107 
     71 H71        34.3867  -45.2800  -55.8064 H         1 UNK         0.0773 
     72 H72        34.9206  -44.6308  -53.3015 H         1 UNK         0.0680 
     73 H73        35.0933  -46.3339  -53.0162 H         1 UNK         0.0680 
     74 H74        32.6809  -43.4687  -54.2815 H         1 UNK         0.0650 
     75 H75        32.9026  -43.5434  -52.5477 H         1 UNK         0.0650 
     76 H76        30.9669  -44.2984  -51.0689 H         1 UNK         0.1397 
     77 H77        27.0656  -43.3721  -52.5804 H         1 UNK         0.1363 
     78 H78        30.4618  -43.3347  -55.2076 H         1 UNK         0.1355 
     79 H79        27.1291  -43.8081  -55.4244 H         1 UNK         0.0707 
     80 H80        26.9583  -42.2024  -54.7509 H         1 UNK         0.0707 
     81 H81        26.1109  -41.6141  -56.8975 H         1 UNK         0.1034 
     82 H82        27.1021  -40.7345  -58.0082 H         1 UNK         0.1034 
     83 H83        25.5879  -42.4401  -59.0536 H         1 UNK         0.0482 
     84 H84        28.1134  -44.5963  -59.8940 H         1 UNK         0.3460 
     85 H85        28.7532  -43.6106  -61.1881 H         1 UNK         0.3460 
     86 H86        27.0691  -44.3472  -57.4085 H         1 UNK         0.2989 
     87 H87        25.0460  -46.4356  -57.1339 H         1 UNK         0.0559 
     88 H88        25.8947  -47.6113  -59.8336 H         1 UNK         0.0848 
     89 H89        24.2458  -47.4355  -59.2480 H         1 UNK         0.0848 
     90 H90        25.3400  -48.5514  -58.4515 H         1 UNK         0.0848 
     91 H91        27.0540  -47.0543  -56.4421 H         1 UNK         0.3144 
     92 H92        30.2163  -47.5555  -58.0500 H         1 UNK         0.0727 
     93 H93        30.8780  -46.7502  -55.7901 H         1 UNK         0.0790 
     94 H94        30.2726  -45.4202  -56.7668 H         1 UNK         0.0790 
     95 H95        29.2601  -46.1201  -55.5121 H         1 UNK         0.0790 
     96 H96        29.1768  -48.6387  -55.6353 H         1 UNK         0.3215 
     97 H97        27.6920  -51.5856  -57.0490 H         1 UNK         0.0863 
     98 H98        29.1401  -52.6717  -55.4064 H         1 UNK         0.0808 
     99 H99        30.0672  -51.1956  -55.1655 H         1 UNK         0.0808 
    100 H100       30.1502  -52.0442  -56.7006 H         1 UNK         0.0808 
    101 H101       27.9585  -50.2786  -54.4262 H         1 UNK         0.3118 
    102 H102       24.7743  -48.8380  -54.4652 H         1 UNK         0.0546 
    103 H103       25.4662  -51.4274  -52.9717 H         1 UNK         0.0828 
    104 H104       24.0500  -51.1775  -53.9821 H         1 UNK         0.0828 
    105 H105       24.2329  -50.2572  -52.4994 H         1 UNK         0.0828 
    106 H106       26.6514  -49.3375  -52.3533 H         1 UNK         0.3005 
    107 H107       28.6430  -46.4326  -52.9042 H         1 UNK         0.1257 
    108 H108       26.5451  -47.2559  -50.8151 H         1 UNK         0.0775 
    109 H109       26.6013  -45.7257  -51.6419 H         1 UNK         0.0775 
    110 H110       27.3527  -43.7020  -50.2256 H         1 UNK         0.0840 
    111 H111       28.9577  -43.6155  -49.5444 H         1 UNK         0.0840 
    112 H112       28.9307  -48.3783  -50.9394 H         1 UNK         0.2987 
    113 H113       30.8737  -49.5341  -50.9378 H         1 UNK         0.0785 
    114 H114       28.9495  -51.1314  -51.2165 H         1 UNK         0.0798 
    115 H115       30.4749  -51.9968  -51.1594 H         1 UNK         0.0798 
    116 H116       29.6628  -51.7479  -52.7022 H         1 UNK         0.0798 
    117 H117       31.8532  -50.1926  -53.6500 H         1 UNK         0.3079 
    118 H118       35.1738  -50.3942  -52.3774 H         1 UNK         0.0794 
    119 H119       35.4053  -52.4698  -53.7218 H         1 UNK         0.0786 
    120 H120       33.6560  -52.6930  -53.7156 H         1 UNK         0.0786 
    121 H121       34.5614  -52.7858  -52.2145 H         1 UNK         0.0786 
    122 H122       35.1270  -49.3410  -54.2933 H         1 UNK         0.3032 
    123 H123       34.8639  -49.5640  -56.8973 H         1 UNK         0.1094 
    124 H124       31.8763  -49.0145  -57.2520 H         1 UNK         0.0794 
    125 H125       33.1166  -48.6541  -58.4550 H         1 UNK         0.0794 
    126 H126       32.7886  -50.3166  -57.9935 H         1 UNK         0.0794 
    127 H127       33.2602  -47.2074  -56.2308 H         1 UNK         0.3016 
@<TRIPOS>BOND
     1    1    2 1    
     2    1   67 1    
     3    1   68 1    
     4    1   69 1    
     5    2    3 2    
     6    2    4 am   BACKBONE|DICT|INTERRES
     7    4    5 1    
     8    4   70 1    
     9    5    6 1    
    10    5   65 1    
    11    5   71 1    
    12    6    7 1    
    13    6   72 1    
    14    6   73 1    
    15    7    8 1    
    16    8    9 1    
    17    8   74 1    
    18    8   75 1    
    19    9   10 ar   
    20    9   14 ar   
    21   10   11 ar   
    22   10   76 1    
    23   11   12 ar   
    24   11   48 1    
    25   12   13 ar   
    26   12   77 1    
    27   13   14 ar   
    28   13   15 1    
    29   14   78 1    
    30   15   16 1    
    31   15   79 1    
    32   15   80 1    
    33   16   17 1    
    34   17   18 1    
    35   17   81 1    
    36   17   82 1    
    37   18   19 1    
    38   18   22 1    
    39   18   83 1    
    40   19   20 am   BACKBONE|DICT|INTERRES
    41   19   21 2    
    42   20   84 1    
    43   20   85 1    
    44   22   23 am   BACKBONE|DICT|INTERRES
    45   22   86 1    
    46   23   24 2    
    47   23   25 1    
    48   25   26 1    
    49   25   27 1    
    50   25   87 1    
    51   26   88 1    
    52   26   89 1    
    53   26   90 1    
    54   27   28 am   BACKBONE|DICT|INTERRES
    55   27   91 1    
    56   28   29 2    
    57   28   30 1    
    58   30   31 1    
    59   30   32 1    
    60   30   92 1    
    61   31   93 1    
    62   31   94 1    
    63   31   95 1    
    64   32   33 am   BACKBONE|DICT|INTERRES
    65   32   96 1    
    66   33   34 2    
    67   33   35 1    
    68   35   36 1    
    69   35   37 1    
    70   35   97 1    
    71   36   98 1    
    72   36   99 1    
    73   36  100 1    
    74   37   38 am   BACKBONE|DICT|INTERRES
    75   37  101 1    
    76   38   39 2    
    77   38   40 1    
    78   40   41 1    
    79   40   42 1    
    80   40  102 1    
    81   41  103 1    
    82   41  104 1    
    83   41  105 1    
    84   42   43 am   BACKBONE|DICT|INTERRES
    85   42  106 1    
    86   43   44 2    
    87   43   45 1    
    88   45   46 1    
    89   45   49 1    
    90   45  107 1    
    91   46   47 1    
    92   46  108 1    
    93   46  109 1    
    94   47   48 1    
    95   48  110 1    
    96   48  111 1    
    97   49   50 am   BACKBONE|DICT|INTERRES
    98   49  112 1    
    99   50   51 2    
   100   50   52 1    
   101   52   53 1    
   102   52   54 1    
   103   52  113 1    
   104   53  114 1    
   105   53  115 1    
   106   53  116 1    
   107   54   55 am   BACKBONE|DICT|INTERRES
   108   54  117 1    
   109   55   56 2    
   110   55   57 1    
   111   57   58 1    
   112   57   59 1    
   113   57  118 1    
   114   58  119 1    
   115   58  120 1    
   116   58  121 1    
   117   59   60 am   BACKBONE|DICT|INTERRES
   118   59  122 1    
   119   60   61 2    
   120   60   62 1    
   121   62   63 1    
   122   62   64 1    
   123   62  123 1    
   124   63  124 1    
   125   63  125 1    
   126   63  126 1    
   127   64   65 am   BACKBONE|DICT|INTERRES
   128   64  127 1    
   129   65   66 2    
@<TRIPOS>SUBSTRUCTURE
     1 UNK         1 GROUP             0       ****    0 ROOT    
