@<TRIPOS>MOLECULE
3R134
127   129    1
SMALL
USER_CHARGES


@<TRIPOS>ATOM
      1 CA         37.8682  -48.0770  -51.9268 C.3       0 UNK        -0.1968 
      2 C          36.6946  -47.7170  -52.8250 C.2       0 UNK         0.4852 
      3 O          35.9740  -48.6089  -53.2767 O.2       0 UNK        -0.5359 
      4 N          36.4816  -46.4153  -53.0724 N.am      1 UNK        -0.4300 
      5 CA         35.4206  -45.8759  -53.9371 C.3       1 UNK         0.0863 
      6 C6         35.6195  -44.3636  -54.2084 C.3       11 UNK        -0.0953 
      7 S7         35.3202  -43.2823  -52.7623 S.3       11 UNK        -0.2369 
      8 C8         34.2628  -41.9732  -53.4660 C.3       11 UNK         0.0226 
      9 C9         32.8830  -42.4788  -53.8696 C.ar      11 UNK        -0.0699 
     10 C10        31.8702  -42.6182  -52.9141 C.ar      11 UNK        -0.0804 
     11 C11        30.5937  -43.0635  -53.2798 C.ar      11 UNK        -0.0871 
     12 C12        30.3467  -43.3771  -54.6223 C.ar      11 UNK        -0.1008 
     13 C13        31.3528  -43.2543  -55.5826 C.ar      11 UNK        -0.0735 
     14 C14        32.6123  -42.7871  -55.2057 C.ar      11 UNK        -0.0945 
     15 C15        31.0791  -43.6635  -57.0180 C.3       11 UNK         0.0169 
     16 S16        30.0412  -42.4445  -57.8789 S.3       11 UNK        -0.2669 
     17 C17        29.1574  -43.5643  -59.0128 C.3       11 UNK        -0.0850 
     18 CA         27.9376  -44.2432  -58.3162 C.3       10 UNK         0.0855 
     19 C          26.6038  -43.4444  -58.4333 C.2       10 UNK         0.5543 
     20 N          26.6569  -42.1211  -58.3678 N.am      10 UNK        -0.7343 
     21 O          25.5158  -44.0084  -58.5325 O.2       10 UNK        -0.5027 
     22 N          27.8148  -45.6617  -58.6744 N.am      10 UNK        -0.4495 
     23 C          27.5582  -46.1557  -59.8936 C.2       10 UNK         0.4903 
     24 O          27.4799  -45.4749  -60.9166 O.2       10 UNK        -0.4860 
     25 CA         27.3498  -47.6760  -59.9810 C.3       9 UNK         0.0227 
     26 CB         28.6890  -48.3951  -60.2120 C.3       9 UNK        -0.1964 
     27 N          26.7287  -48.1905  -58.7606 N.am      9 UNK        -0.4231 
     28 C          25.4133  -48.1759  -58.5055 C.2       9 UNK         0.5014 
     29 O          24.5612  -47.8364  -59.3289 O.2       9 UNK        -0.5270 
     30 CA         24.9864  -48.5925  -57.0829 C.3       8 UNK         0.0284 
     31 CB         23.5185  -49.0642  -57.0024 C.3       8 UNK        -0.1977 
     32 N          25.8939  -49.5709  -56.4707 N.am      8 UNK        -0.4342 
     33 C          26.1536  -50.8187  -56.8938 C.2       8 UNK         0.5039 
     34 O          25.5956  -51.3456  -57.8573 O.2       8 UNK        -0.5547 
     35 CA         27.2419  -51.6160  -56.1486 C.3       7 UNK         0.0281 
     36 CB         28.4627  -51.8208  -57.0617 C.3       7 UNK        -0.1963 
     37 N          27.6835  -50.9965  -54.8953 N.am      7 UNK        -0.4444 
     38 C          26.9629  -50.9580  -53.7663 C.2       7 UNK         0.5104 
     39 O          25.8620  -51.4939  -53.6375 O.2       7 UNK        -0.5100 
     40 CA         27.5509  -50.1518  -52.5954 C.3       6 UNK         0.0396 
     41 CB         28.5329  -51.0134  -51.7865 C.3       6 UNK        -0.1801 
     42 N          28.2175  -48.9126  -53.0082 N.am      6 UNK        -0.4747 
     43 C          27.6358  -47.8835  -53.6444 C.2       6 UNK         0.5012 
     44 O          26.4568  -47.8717  -53.9976 O.2       6 UNK        -0.5003 
     45 CA         28.5518  -46.6943  -53.9942 C.3       5 UNK         0.0782 
     46 C46        28.9728  -45.8981  -52.7265 C.3       11 UNK        -0.0868 
     47 S47        28.1155  -44.2980  -52.5838 S.3       11 UNK        -0.2515 
     48 C48        29.5102  -43.1733  -52.2025 C.3       11 UNK         0.0199 
     49 N          29.7127  -47.1584  -54.7551 N.am      5 UNK        -0.4607 
     50 C          29.6704  -47.6905  -55.9828 C.2       4 UNK         0.5031 
     51 O          28.6565  -47.7271  -56.6822 O.2       4 UNK        -0.5119 
     52 CA         30.9734  -48.3182  -56.5037 C.3       4 UNK         0.0263 
     53 CB         31.7672  -47.3102  -57.3483 C.3       4 UNK        -0.1967 
     54 N          31.8180  -48.8315  -55.4188 N.am      4 UNK        -0.4237 
     55 C          31.5314  -49.9299  -54.7024 C.2       3 UNK         0.4908 
     56 O          30.5506  -50.6414  -54.9134 O.2       3 UNK        -0.5102 
     57 CA         32.4581  -50.2680  -53.5214 C.3       3 UNK         0.0241 
     58 CB         33.6912  -51.0452  -54.0066 C.3       3 UNK        -0.1971 
     59 N          32.8829  -49.0853  -52.7687 N.am      3 UNK        -0.4139 
     60 C          32.0471  -48.2698  -52.1056 C.2       2 UNK         0.5016 
     61 O          30.8384  -48.4752  -52.0026 O.2       2 UNK        -0.5319 
     62 CA         32.6333  -46.9839  -51.4925 C.3       2 UNK         0.0286 
     63 CB         32.9169  -47.1881  -49.9967 C.3       2 UNK        -0.1963 
     64 N          33.8488  -46.5012  -52.1502 N.am      2 UNK        -0.4790 
     65 C          33.9909  -46.2165  -53.4549 C.2       1 UNK         0.5024 
     66 O          33.0713  -46.2852  -54.2714 O.2       1 UNK        -0.4888 
     67 H67        38.4115  -47.1940  -51.5909 H         1 UNK         0.0892 
     68 H68        37.5156  -48.6144  -51.0469 H         1 UNK         0.0892 
     69 H69        38.5651  -48.7207  -52.4627 H         1 UNK         0.0892 
     70 H70        37.0928  -45.7251  -52.6584 H         1 UNK         0.3107 
     71 H71        35.5326  -46.3843  -54.8973 H         1 UNK         0.0773 
     72 H72        34.9838  -44.0624  -55.0388 H         1 UNK         0.0680 
     73 H73        36.6377  -44.1824  -54.5560 H         1 UNK         0.0680 
     74 H74        34.1539  -41.1787  -52.7263 H         1 UNK         0.0650 
     75 H75        34.7713  -41.5224  -54.3197 H         1 UNK         0.0650 
     76 H76        32.0786  -42.3720  -51.8817 H         1 UNK         0.1397 
     77 H77        29.3719  -43.7218  -54.9350 H         1 UNK         0.1363 
     78 H78        33.3856  -42.6767  -55.9530 H         1 UNK         0.1355 
     79 H79        32.0080  -43.8047  -57.5728 H         1 UNK         0.0707 
     80 H80        30.5786  -44.6321  -57.0046 H         1 UNK         0.0707 
     81 H81        29.8705  -44.3106  -59.3673 H         1 UNK         0.1034 
     82 H82        28.8534  -43.0181  -59.9080 H         1 UNK         0.1034 
     83 H83        28.1288  -44.2838  -57.2433 H         1 UNK         0.0482 
     84 H84        25.8033  -41.5877  -58.4219 H         1 UNK         0.3460 
     85 H85        27.5425  -41.6512  -58.2527 H         1 UNK         0.3460 
     86 H86        27.8796  -46.3157  -57.9027 H         1 UNK         0.2989 
     87 H87        26.6989  -47.8832  -60.8330 H         1 UNK         0.0559 
     88 H88        29.3874  -48.2280  -59.3916 H         1 UNK         0.0848 
     89 H89        29.1684  -48.0412  -61.1257 H         1 UNK         0.0848 
     90 H90        28.5473  -49.4710  -60.3161 H         1 UNK         0.0848 
     91 H91        27.3574  -48.4174  -57.9960 H         1 UNK         0.3144 
     92 H92        25.0709  -47.6905  -56.4750 H         1 UNK         0.0727 
     93 H93        23.3322  -49.9238  -57.6468 H         1 UNK         0.0790 
     94 H94        22.8361  -48.2724  -57.3134 H         1 UNK         0.0790 
     95 H95        23.2475  -49.3422  -55.9839 H         1 UNK         0.0790 
     96 H96        26.3938  -49.2328  -55.6558 H         1 UNK         0.3215 
     97 H97        26.8211  -52.5964  -55.9151 H         1 UNK         0.0863 
     98 H98        28.9261  -50.8713  -57.3310 H         1 UNK         0.0808 
     99 H99        28.1810  -52.3207  -57.9895 H         1 UNK         0.0808 
    100 H100       29.2200  -52.4396  -56.5800 H         1 UNK         0.0808 
    101 H101       28.6242  -50.6088  -54.8852 H         1 UNK         0.3118 
    102 H102       26.7241  -49.8724  -51.9394 H         1 UNK         0.0546 
    103 H103       28.8994  -50.4797  -50.9094 H         1 UNK         0.0828 
    104 H104       29.3972  -51.3066  -52.3832 H         1 UNK         0.0828 
    105 H105       28.0532  -51.9274  -51.4339 H         1 UNK         0.0828 
    106 H106       29.1964  -48.8170  -52.7387 H         1 UNK         0.3005 
    107 H107       27.9838  -46.0417  -54.6614 H         1 UNK         0.1257 
    108 H108       30.0428  -45.6995  -52.7545 H         1 UNK         0.0775 
    109 H109       28.8168  -46.4557  -51.8005 H         1 UNK         0.0775 
    110 H110       29.1060  -42.1766  -52.0215 H         1 UNK         0.0840 
    111 H111       29.9591  -43.4976  -51.2621 H         1 UNK         0.0840 
    112 H112       30.5968  -47.1654  -54.2671 H         1 UNK         0.2987 
    113 H113       30.6970  -49.1547  -57.1486 H         1 UNK         0.0785 
    114 H114       32.6315  -47.7822  -57.8155 H         1 UNK         0.0798 
    115 H115       31.1526  -46.8971  -58.1493 H         1 UNK         0.0798 
    116 H116       32.1288  -46.4751  -56.7484 H         1 UNK         0.0798 
    117 H117       32.6023  -48.2539  -55.1413 H         1 UNK         0.3079 
    118 H118       31.8988  -50.9102  -52.8378 H         1 UNK         0.0794 
    119 H119       34.3183  -51.3554  -53.1705 H         1 UNK         0.0786 
    120 H120       34.3066  -50.4476  -54.6805 H         1 UNK         0.0786 
    121 H121       33.3976  -51.9477  -54.5446 H         1 UNK         0.0786 
    122 H122       33.8671  -48.8428  -52.8162 H         1 UNK         0.3032 
    123 H123       31.8829  -46.1994  -51.5900 H         1 UNK         0.1094 
    124 H124       33.6905  -47.9391  -49.8309 H         1 UNK         0.0794 
    125 H125       33.2396  -46.2609  -49.5227 H         1 UNK         0.0794 
    126 H126       32.0203  -47.5221  -49.4720 H         1 UNK         0.0794 
    127 H127       34.6693  -46.4131  -51.5685 H         1 UNK         0.3016 
@<TRIPOS>BOND
     1    1    2 1    
     2    1   67 1    
     3    1   68 1    
     4    1   69 1    
     5    2    3 2    
     6    2    4 am   BACKBONE|DICT|INTERRES
     7    4    5 1    
     8    4   70 1    
     9    5    6 1    
    10    5   65 1    
    11    5   71 1    
    12    6    7 1    
    13    6   72 1    
    14    6   73 1    
    15    7    8 1    
    16    8    9 1    
    17    8   74 1    
    18    8   75 1    
    19    9   10 ar   
    20    9   14 ar   
    21   10   11 ar   
    22   10   76 1    
    23   11   12 ar   
    24   11   48 1    
    25   12   13 ar   
    26   12   77 1    
    27   13   14 ar   
    28   13   15 1    
    29   14   78 1    
    30   15   16 1    
    31   15   79 1    
    32   15   80 1    
    33   16   17 1    
    34   17   18 1    
    35   17   81 1    
    36   17   82 1    
    37   18   19 1    
    38   18   22 1    
    39   18   83 1    
    40   19   20 am   BACKBONE|DICT|INTERRES
    41   19   21 2    
    42   20   84 1    
    43   20   85 1    
    44   22   23 am   BACKBONE|DICT|INTERRES
    45   22   86 1    
    46   23   24 2    
    47   23   25 1    
    48   25   26 1    
    49   25   27 1    
    50   25   87 1    
    51   26   88 1    
    52   26   89 1    
    53   26   90 1    
    54   27   28 am   BACKBONE|DICT|INTERRES
    55   27   91 1    
    56   28   29 2    
    57   28   30 1    
    58   30   31 1    
    59   30   32 1    
    60   30   92 1    
    61   31   93 1    
    62   31   94 1    
    63   31   95 1    
    64   32   33 am   BACKBONE|DICT|INTERRES
    65   32   96 1    
    66   33   34 2    
    67   33   35 1    
    68   35   36 1    
    69   35   37 1    
    70   35   97 1    
    71   36   98 1    
    72   36   99 1    
    73   36  100 1    
    74   37   38 am   BACKBONE|DICT|INTERRES
    75   37  101 1    
    76   38   39 2    
    77   38   40 1    
    78   40   41 1    
    79   40   42 1    
    80   40  102 1    
    81   41  103 1    
    82   41  104 1    
    83   41  105 1    
    84   42   43 am   BACKBONE|DICT|INTERRES
    85   42  106 1    
    86   43   44 2    
    87   43   45 1    
    88   45   46 1    
    89   45   49 1    
    90   45  107 1    
    91   46   47 1    
    92   46  108 1    
    93   46  109 1    
    94   47   48 1    
    95   48  110 1    
    96   48  111 1    
    97   49   50 am   BACKBONE|DICT|INTERRES
    98   49  112 1    
    99   50   51 2    
   100   50   52 1    
   101   52   53 1    
   102   52   54 1    
   103   52  113 1    
   104   53  114 1    
   105   53  115 1    
   106   53  116 1    
   107   54   55 am   BACKBONE|DICT|INTERRES
   108   54  117 1    
   109   55   56 2    
   110   55   57 1    
   111   57   58 1    
   112   57   59 1    
   113   57  118 1    
   114   58  119 1    
   115   58  120 1    
   116   58  121 1    
   117   59   60 am   BACKBONE|DICT|INTERRES
   118   59  122 1    
   119   60   61 2    
   120   60   62 1    
   121   62   63 1    
   122   62   64 1    
   123   62  123 1    
   124   63  124 1    
   125   63  125 1    
   126   63  126 1    
   127   64   65 am   BACKBONE|DICT|INTERRES
   128   64  127 1    
   129   65   66 2    
@<TRIPOS>SUBSTRUCTURE
     1 UNK         1 GROUP             0       ****    0 ROOT    
