@<TRIPOS>MOLECULE
3R134
127   129    1
SMALL
USER_CHARGES


@<TRIPOS>ATOM
      1 CA         35.8017  -48.1886  -50.8843 C.3       0 UNK        -0.1968 
      2 C          35.8409  -47.0320  -51.8722 C.2       0 UNK         0.4852 
      3 O          36.7480  -46.2005  -51.8072 O.2       0 UNK        -0.5359 
      4 N          34.8675  -46.9826  -52.7863 N.am      1 UNK        -0.4300 
      5 CA         34.7237  -45.9828  -53.8424 C.3       1 UNK         0.0863 
      6 C6         33.4906  -45.0885  -53.5625 C.3       11 UNK        -0.0953 
      7 S7         33.5116  -43.5168  -54.4862 S.3       11 UNK        -0.2369 
      8 C8         32.0356  -43.6983  -55.5495 C.3       11 UNK         0.0226 
      9 C9         30.6770  -43.7304  -54.8404 C.ar      11 UNK        -0.0699 
     10 C10        30.5218  -43.5842  -53.4542 C.ar      11 UNK        -0.0804 
     11 C11        29.2575  -43.6585  -52.8630 C.ar      11 UNK        -0.0871 
     12 C12        28.1294  -43.8341  -53.6687 C.ar      11 UNK        -0.1008 
     13 C13        28.2642  -43.9745  -55.0511 C.ar      11 UNK        -0.0735 
     14 C14        29.5378  -43.9312  -55.6250 C.ar      11 UNK        -0.0945 
     15 C15        27.0381  -44.2271  -55.9150 C.3       11 UNK         0.0169 
     16 S16        26.1873  -42.6944  -56.4087 S.3       11 UNK        -0.2669 
     17 C17        27.3190  -41.9776  -57.6525 C.3       11 UNK        -0.0850 
     18 CA         26.8726  -42.2449  -59.1219 C.3       10 UNK         0.0855 
     19 C          27.6337  -41.3519  -60.1521 C.2       10 UNK         0.5543 
     20 N          27.8765  -41.8128  -61.3732 N.am      10 UNK        -0.7343 
     21 O          27.9801  -40.2106  -59.8568 O.2       10 UNK        -0.5027 
     22 N          26.8268  -43.6809  -59.4677 N.am      10 UNK        -0.4495 
     23 C          27.8727  -44.5172  -59.5071 C.2       10 UNK         0.4903 
     24 O          29.0342  -44.1913  -59.2539 O.2       10 UNK        -0.4860 
     25 CA         27.5723  -45.9621  -59.9299 C.3       9 UNK         0.0227 
     26 CB         27.8464  -46.1476  -61.4316 C.3       9 UNK        -0.1964 
     27 N          28.4112  -46.8897  -59.1695 N.am      9 UNK        -0.4231 
     28 C          28.0627  -47.4452  -58.0029 C.2       9 UNK         0.5014 
     29 O          26.9592  -47.2939  -57.4724 O.2       9 UNK        -0.5270 
     30 CA         29.1479  -48.2836  -57.3019 C.3       8 UNK         0.0284 
     31 CB         30.0642  -47.3831  -56.4547 C.3       8 UNK        -0.1977 
     32 N          28.5809  -49.3170  -56.4349 N.am      8 UNK        -0.4342 
     33 C          27.8700  -50.3757  -56.8445 C.2       8 UNK         0.5039 
     34 O          27.6598  -50.6446  -58.0285 O.2       8 UNK        -0.5547 
     35 CA         27.3076  -51.3032  -55.7562 C.3       7 UNK         0.0281 
     36 CB         28.3605  -52.3451  -55.3433 C.3       7 UNK        -0.1963 
     37 N          26.8805  -50.5631  -54.5658 N.am      7 UNK        -0.4444 
     38 C          25.6074  -50.3028  -54.2382 C.2       7 UNK         0.5104 
     39 O          24.6426  -50.6348  -54.9285 O.2       7 UNK        -0.5100 
     40 CA         25.3463  -49.5858  -52.8977 C.3       6 UNK         0.0396 
     41 CB         24.8632  -50.5948  -51.8429 C.3       6 UNK        -0.1801 
     42 N          26.5176  -48.8798  -52.3721 N.am      6 UNK        -0.4747 
     43 C          26.9329  -47.6766  -52.7939 C.2       6 UNK         0.5012 
     44 O          26.3230  -47.0011  -53.6215 O.2       6 UNK        -0.5003 
     45 CA         28.2576  -47.1380  -52.2055 C.3       5 UNK         0.0782 
     46 C46        27.9605  -46.1387  -51.0593 C.3       11 UNK        -0.0868 
     47 S47        29.4355  -45.1874  -50.5604 S.3       11 UNK        -0.2515 
     48 C48        29.1199  -43.5732  -51.3501 C.3       11 UNK         0.0199 
     49 N          29.1992  -48.1915  -51.7856 N.am      5 UNK        -0.4607 
     50 C          29.6889  -49.1459  -52.5868 C.2       4 UNK         0.5031 
     51 O          29.3380  -49.2905  -53.7590 O.2       4 UNK        -0.5119 
     52 CA         30.6690  -50.1563  -51.9671 C.3       4 UNK         0.0263 
     53 CB         29.8921  -51.2868  -51.2724 C.3       4 UNK        -0.1967 
     54 N          31.5311  -50.7380  -53.0005 N.am      4 UNK        -0.4237 
     55 C          32.5051  -50.0613  -53.6203 C.2       3 UNK         0.4908 
     56 O          32.9038  -48.9555  -53.2405 O.2       3 UNK        -0.5102 
     57 CA         33.1291  -50.7175  -54.8660 C.3       3 UNK         0.0241 
     58 CB         32.0698  -51.2638  -55.8436 C.3       3 UNK        -0.1971 
     59 N          33.9291  -49.7065  -55.5464 N.am      3 UNK        -0.4139 
     60 C          35.1413  -49.8564  -56.0856 C.2       2 UNK         0.5016 
     61 O          35.6987  -50.9453  -56.2346 O.2       2 UNK        -0.5319 
     62 CA         35.8866  -48.5621  -56.4736 C.3       2 UNK         0.0286 
     63 CB         35.5121  -48.0971  -57.8953 C.3       2 UNK        -0.1963 
     64 N          35.7407  -47.4867  -55.4736 N.am      2 UNK        -0.4790 
     65 C          34.6471  -46.7711  -55.1615 C.2       1 UNK         0.5024 
     66 O          33.5916  -46.8363  -55.7925 O.2       1 UNK        -0.4888 
     67 H67        34.9203  -48.8199  -51.0328 H         1 UNK         0.0892 
     68 H68        36.6927  -48.8121  -51.0001 H         1 UNK         0.0892 
     69 H69        35.7790  -47.8065  -49.8598 H         1 UNK         0.0892 
     70 H70        34.1648  -47.7230  -52.8200 H         1 UNK         0.3107 
     71 H71        35.6132  -45.3509  -53.8914 H         1 UNK         0.0773 
     72 H72        32.5588  -45.6316  -53.7338 H         1 UNK         0.0680 
     73 H73        33.4743  -44.8161  -52.5059 H         1 UNK         0.0680 
     74 H74        32.1467  -44.6061  -56.1439 H         1 UNK         0.0650 
     75 H75        32.0323  -42.8683  -56.2571 H         1 UNK         0.0650 
     76 H76        31.3791  -43.4348  -52.8152 H         1 UNK         0.1397 
     77 H77        27.1463  -43.8884  -53.2215 H         1 UNK         0.1363 
     78 H78        29.6467  -44.0650  -56.6924 H         1 UNK         0.1355 
     79 H79        26.3333  -44.8575  -55.3710 H         1 UNK         0.0707 
     80 H80        27.3147  -44.7925  -56.8006 H         1 UNK         0.0707 
     81 H81        27.3408  -40.9046  -57.4543 H         1 UNK         0.1034 
     82 H82        28.3401  -42.3178  -57.4901 H         1 UNK         0.1034 
     83 H83        25.8390  -41.9061  -59.2009 H         1 UNK         0.0482 
     84 H84        27.5876  -42.7410  -61.6353 H         1 UNK         0.3460 
     85 H85        28.3579  -41.2259  -62.0362 H         1 UNK         0.3460 
     86 H86        25.9124  -44.0365  -59.7079 H         1 UNK         0.2989 
     87 H87        26.5184  -46.1807  -59.7438 H         1 UNK         0.0559 
     88 H88        27.2114  -45.4924  -62.0293 H         1 UNK         0.0848 
     89 H89        27.6413  -47.1704  -61.7484 H         1 UNK         0.0848 
     90 H90        28.8822  -45.9190  -61.6870 H         1 UNK         0.0848 
     91 H91        29.3579  -47.0078  -59.5016 H         1 UNK         0.3144 
     92 H92        29.7508  -48.7818  -58.0640 H         1 UNK         0.0727 
     93 H93        29.5099  -46.8866  -55.6569 H         1 UNK         0.0790 
     94 H94        30.5301  -46.6062  -57.0622 H         1 UNK         0.0790 
     95 H95        30.8696  -47.9538  -55.9912 H         1 UNK         0.0790 
     96 H96        28.7475  -49.2031  -55.4369 H         1 UNK         0.3215 
     97 H97        26.4606  -51.8389  -56.1906 H         1 UNK         0.0863 
     98 H98        27.9406  -53.0780  -54.6543 H         1 UNK         0.0808 
     99 H99        29.2158  -51.8797  -54.8543 H         1 UNK         0.0808 
    100 H100       28.7339  -52.8915  -56.2106 H         1 UNK         0.0808 
    101 H101       27.6195  -50.1843  -53.9833 H         1 UNK         0.3118 
    102 H102       24.5449  -48.8623  -53.0636 H         1 UNK         0.0546 
    103 H103       25.6202  -51.3504  -51.6285 H         1 UNK         0.0828 
    104 H104       23.9691  -51.1185  -52.1844 H         1 UNK         0.0828 
    105 H105       24.6068  -50.0991  -50.9064 H         1 UNK         0.0828 
    106 H106       27.0690  -49.3601  -51.6757 H         1 UNK         0.3005 
    107 H107       28.7423  -46.5927  -53.0189 H         1 UNK         0.1257 
    108 H108       27.5825  -46.6683  -50.1829 H         1 UNK         0.0775 
    109 H109       27.1724  -45.4381  -51.3412 H         1 UNK         0.0775 
    110 H110       28.1303  -43.2091  -51.0694 H         1 UNK         0.0840 
    111 H111       29.8312  -42.8443  -50.9585 H         1 UNK         0.0840 
    112 H112       29.5262  -48.1334  -50.8318 H         1 UNK         0.2987 
    113 H113       31.2921  -49.6429  -51.2315 H         1 UNK         0.0785 
    114 H114       29.2659  -50.8977  -50.4685 H         1 UNK         0.0798 
    115 H115       30.5690  -52.0159  -50.8264 H         1 UNK         0.0798 
    116 H116       29.2389  -51.8172  -51.9672 H         1 UNK         0.0798 
    117 H117       31.2502  -51.6330  -53.3714 H         1 UNK         0.3079 
    118 H118       33.7729  -51.5319  -54.5274 H         1 UNK         0.0794 
    119 H119       31.5570  -52.1318  -55.4298 H         1 UNK         0.0786 
    120 H120       32.5258  -51.5857  -56.7802 H         1 UNK         0.0786 
    121 H121       31.3156  -50.5128  -56.0835 H         1 UNK         0.0786 
    122 H122       33.5816  -48.7554  -55.4513 H         1 UNK         0.3032 
    123 H123       36.9495  -48.8111  -56.4844 H         1 UNK         0.1094 
    124 H124       36.0503  -47.1903  -58.1710 H         1 UNK         0.0794 
    125 H125       35.7674  -48.8620  -58.6298 H         1 UNK         0.0794 
    126 H126       34.4448  -47.8996  -57.9985 H         1 UNK         0.0794 
    127 H127       36.5344  -47.3852  -54.8543 H         1 UNK         0.3016 
@<TRIPOS>BOND
     1    1    2 1    
     2    1   67 1    
     3    1   68 1    
     4    1   69 1    
     5    2    3 2    
     6    2    4 am   BACKBONE|DICT|INTERRES
     7    4    5 1    
     8    4   70 1    
     9    5    6 1    
    10    5   65 1    
    11    5   71 1    
    12    6    7 1    
    13    6   72 1    
    14    6   73 1    
    15    7    8 1    
    16    8    9 1    
    17    8   74 1    
    18    8   75 1    
    19    9   10 ar   
    20    9   14 ar   
    21   10   11 ar   
    22   10   76 1    
    23   11   12 ar   
    24   11   48 1    
    25   12   13 ar   
    26   12   77 1    
    27   13   14 ar   
    28   13   15 1    
    29   14   78 1    
    30   15   16 1    
    31   15   79 1    
    32   15   80 1    
    33   16   17 1    
    34   17   18 1    
    35   17   81 1    
    36   17   82 1    
    37   18   19 1    
    38   18   22 1    
    39   18   83 1    
    40   19   20 am   BACKBONE|DICT|INTERRES
    41   19   21 2    
    42   20   84 1    
    43   20   85 1    
    44   22   23 am   BACKBONE|DICT|INTERRES
    45   22   86 1    
    46   23   24 2    
    47   23   25 1    
    48   25   26 1    
    49   25   27 1    
    50   25   87 1    
    51   26   88 1    
    52   26   89 1    
    53   26   90 1    
    54   27   28 am   BACKBONE|DICT|INTERRES
    55   27   91 1    
    56   28   29 2    
    57   28   30 1    
    58   30   31 1    
    59   30   32 1    
    60   30   92 1    
    61   31   93 1    
    62   31   94 1    
    63   31   95 1    
    64   32   33 am   BACKBONE|DICT|INTERRES
    65   32   96 1    
    66   33   34 2    
    67   33   35 1    
    68   35   36 1    
    69   35   37 1    
    70   35   97 1    
    71   36   98 1    
    72   36   99 1    
    73   36  100 1    
    74   37   38 am   BACKBONE|DICT|INTERRES
    75   37  101 1    
    76   38   39 2    
    77   38   40 1    
    78   40   41 1    
    79   40   42 1    
    80   40  102 1    
    81   41  103 1    
    82   41  104 1    
    83   41  105 1    
    84   42   43 am   BACKBONE|DICT|INTERRES
    85   42  106 1    
    86   43   44 2    
    87   43   45 1    
    88   45   46 1    
    89   45   49 1    
    90   45  107 1    
    91   46   47 1    
    92   46  108 1    
    93   46  109 1    
    94   47   48 1    
    95   48  110 1    
    96   48  111 1    
    97   49   50 am   BACKBONE|DICT|INTERRES
    98   49  112 1    
    99   50   51 2    
   100   50   52 1    
   101   52   53 1    
   102   52   54 1    
   103   52  113 1    
   104   53  114 1    
   105   53  115 1    
   106   53  116 1    
   107   54   55 am   BACKBONE|DICT|INTERRES
   108   54  117 1    
   109   55   56 2    
   110   55   57 1    
   111   57   58 1    
   112   57   59 1    
   113   57  118 1    
   114   58  119 1    
   115   58  120 1    
   116   58  121 1    
   117   59   60 am   BACKBONE|DICT|INTERRES
   118   59  122 1    
   119   60   61 2    
   120   60   62 1    
   121   62   63 1    
   122   62   64 1    
   123   62  123 1    
   124   63  124 1    
   125   63  125 1    
   126   63  126 1    
   127   64   65 am   BACKBONE|DICT|INTERRES
   128   64  127 1    
   129   65   66 2    
@<TRIPOS>SUBSTRUCTURE
     1 UNK         1 GROUP             0       ****    0 ROOT    
