@<TRIPOS>MOLECULE
3R134
127   129    1
SMALL
USER_CHARGES


@<TRIPOS>ATOM
      1 CA         34.1953  -46.9008  -51.6349 C.3       0 UNK        -0.1968 
      2 C          34.0173  -46.9395  -53.1445 C.2       0 UNK         0.4852 
      3 O          33.0774  -47.5709  -53.6271 O.2       0 UNK        -0.5359 
      4 N          34.9098  -46.2736  -53.8929 N.am      1 UNK        -0.4300 
      5 CA         34.9036  -46.1603  -55.3573 C.3       1 UNK         0.0863 
      6 C6         33.6999  -45.3300  -55.8981 C.3       11 UNK        -0.0953 
      7 S7         34.0348  -43.5404  -55.8202 S.3       11 UNK        -0.2369 
      8 C8         33.4948  -43.0925  -54.1343 C.3       11 UNK         0.0226 
      9 C9         31.9867  -42.9494  -53.9316 C.ar      11 UNK        -0.0699 
     10 C10        31.4640  -43.1403  -52.6476 C.ar      11 UNK        -0.0804 
     11 C11        30.1074  -42.9275  -52.3895 C.ar      11 UNK        -0.0871 
     12 C12        29.2681  -42.5220  -53.4264 C.ar      11 UNK        -0.1008 
     13 C13        29.7630  -42.3518  -54.7227 C.ar      11 UNK        -0.0735 
     14 C14        31.1248  -42.5595  -54.9666 C.ar      11 UNK        -0.0945 
     15 C15        28.8383  -41.9086  -55.8512 C.3       11 UNK         0.0169 
     16 S16        27.2615  -42.8198  -55.8413 S.3       11 UNK        -0.2669 
     17 C17        26.4210  -42.1462  -57.3188 C.3       11 UNK        -0.0850 
     18 CA         26.4364  -43.1014  -58.5438 C.3       10 UNK         0.0855 
     19 C          27.7575  -42.9864  -59.3528 C.2       10 UNK         0.5543 
     20 N          27.8303  -42.0416  -60.2805 N.am      10 UNK        -0.7343 
     21 O          28.7257  -43.7072  -59.1219 O.2       10 UNK        -0.5027 
     22 N          26.1470  -44.4803  -58.1385 N.am      10 UNK        -0.4495 
     23 C          25.7149  -45.4598  -58.9345 C.2       10 UNK         0.4903 
     24 O          25.3617  -45.2979  -60.1042 O.2       10 UNK        -0.4860 
     25 CA         25.6949  -46.8553  -58.2858 C.3       9 UNK         0.0227 
     26 CB         25.1668  -47.9588  -59.2265 C.3       9 UNK        -0.1964 
     27 N          27.0068  -47.2200  -57.7355 N.am      9 UNK        -0.4231 
     28 C          28.1638  -47.3470  -58.4079 C.2       9 UNK         0.5014 
     29 O          28.2981  -47.1452  -59.6156 O.2       9 UNK        -0.5270 
     30 CA         29.3743  -47.8423  -57.5975 C.3       8 UNK         0.0284 
     31 CB         30.0653  -46.6813  -56.8615 C.3       8 UNK        -0.1977 
     32 N          29.0119  -48.8896  -56.6395 N.am      8 UNK        -0.4342 
     33 C          28.5334  -50.1003  -56.9663 C.2       8 UNK         0.5039 
     34 O          28.4495  -50.5211  -58.1204 O.2       8 UNK        -0.5547 
     35 CA         28.0364  -50.9811  -55.8094 C.3       7 UNK         0.0281 
     36 CB         29.1885  -51.8049  -55.2091 C.3       7 UNK        -0.1963 
     37 N          27.3874  -50.1813  -54.7663 N.am      7 UNK        -0.4444 
     38 C          26.1428  -49.6898  -54.8602 C.2       7 UNK         0.5104 
     39 O          25.3856  -49.9215  -55.8024 O.2       7 UNK        -0.5100 
     40 CA         25.6534  -48.7805  -53.7180 C.3       6 UNK         0.0396 
     41 CB         24.8873  -49.6042  -52.6710 C.3       6 UNK        -0.1801 
     42 N          26.7309  -48.0410  -53.0557 N.am      6 UNK        -0.4747 
     43 C          27.4060  -47.0169  -53.6001 C.2       6 UNK         0.5012 
     44 O          27.1812  -46.5763  -54.7287 O.2       6 UNK        -0.5003 
     45 CA         28.5659  -46.4439  -52.7531 C.3       5 UNK         0.0782 
     46 C46        28.0370  -45.4199  -51.7135 C.3       11 UNK        -0.0868 
     47 S47        29.3314  -44.8534  -50.5481 S.3       11 UNK        -0.2515 
     48 C48        29.5476  -43.1021  -50.9865 C.3       11 UNK         0.0199 
     49 N          29.3623  -47.4984  -52.1091 N.am      5 UNK        -0.4607 
     50 C          29.9859  -48.5018  -52.7318 C.2       4 UNK         0.5031 
     51 O          29.8954  -48.7229  -53.9427 O.2       4 UNK        -0.5119 
     52 CA         30.8026  -49.4473  -51.8467 C.3       4 UNK         0.0263 
     53 CB         29.8895  -50.4404  -51.1055 C.3       4 UNK        -0.1967 
     54 N          31.7176  -50.1709  -52.7153 N.am      4 UNK        -0.4237 
     55 C          32.9032  -50.6859  -52.3774 C.2       3 UNK         0.4908 
     56 O          33.3606  -50.6877  -51.2343 O.2       3 UNK        -0.5102 
     57 CA         33.7183  -51.2889  -53.5264 C.3       3 UNK         0.0241 
     58 CB         33.1728  -52.7021  -53.8375 C.3       3 UNK        -0.1971 
     59 N          33.6658  -50.3905  -54.6879 N.am      3 UNK        -0.4139 
     60 C          34.1492  -50.6241  -55.9166 C.2       2 UNK         0.5016 
     61 O          34.7546  -51.6446  -56.2453 O.2       2 UNK        -0.5319 
     62 CA         33.9176  -49.5292  -56.9724 C.3       2 UNK         0.0286 
     63 CB         32.5751  -49.7554  -57.6837 C.3       2 UNK        -0.1963 
     64 N          33.9463  -48.1761  -56.4133 N.am      2 UNK        -0.4790 
     65 C          35.0600  -47.5536  -56.0039 C.2       1 UNK         0.5024 
     66 O          36.1870  -48.0418  -56.1037 O.2       1 UNK        -0.4888 
     67 H67        33.3081  -46.4741  -51.1675 H         1 UNK         0.0892 
     68 H68        34.3312  -47.9106  -51.2485 H         1 UNK         0.0892 
     69 H69        35.0571  -46.3030  -51.3393 H         1 UNK         0.0892 
     70 H70        35.6842  -45.8127  -53.4361 H         1 UNK         0.3107 
     71 H71        35.8205  -45.6303  -55.6219 H         1 UNK         0.0773 
     72 H72        33.5140  -45.5490  -56.9512 H         1 UNK         0.0680 
     73 H73        32.7703  -45.5547  -55.3730 H         1 UNK         0.0680 
     74 H74        33.9522  -42.1346  -53.8846 H         1 UNK         0.0650 
     75 H75        33.9030  -43.8130  -53.4264 H         1 UNK         0.0650 
     76 H76        32.1177  -43.4343  -51.8376 H         1 UNK         0.1397 
     77 H77        28.2213  -42.3405  -53.2247 H         1 UNK         0.1363 
     78 H78        31.5136  -42.3941  -55.9614 H         1 UNK         0.1355 
     79 H79        28.6411  -40.8407  -55.7498 H         1 UNK         0.0707 
     80 H80        29.3216  -42.0532  -56.8186 H         1 UNK         0.0707 
     81 H81        25.3842  -41.9611  -57.0340 H         1 UNK         0.1034 
     82 H82        26.8250  -41.1637  -57.5710 H         1 UNK         0.1034 
     83 H83        25.6283  -42.7869  -59.2078 H         1 UNK         0.0482 
     84 H84        27.0472  -41.4371  -60.4754 H         1 UNK         0.3460 
     85 H85        28.6839  -41.9392  -60.8068 H         1 UNK         0.3460 
     86 H86        26.4545  -44.7159  -57.2048 H         1 UNK         0.2989 
     87 H87        25.0130  -46.7957  -57.4362 H         1 UNK         0.0559 
     88 H88        24.1522  -47.7352  -59.5583 H         1 UNK         0.0848 
     89 H89        25.1387  -48.9254  -58.7229 H         1 UNK         0.0848 
     90 H90        25.7845  -48.0640  -60.1189 H         1 UNK         0.0848 
     91 H91        27.0403  -47.3438  -56.7292 H         1 UNK         0.3144 
     92 H92        30.0867  -48.2723  -58.3033 H         1 UNK         0.0727 
     93 H93        29.3896  -46.1758  -56.1714 H         1 UNK         0.0790 
     94 H94        30.4221  -45.9309  -57.5686 H         1 UNK         0.0790 
     95 H95        30.9248  -47.0284  -56.2887 H         1 UNK         0.0790 
     96 H96        29.1342  -48.6732  -55.6527 H         1 UNK         0.3215 
     97 H97        27.3017  -51.6805  -56.2153 H         1 UNK         0.0863 
     98 H98        28.8455  -52.4278  -54.3830 H         1 UNK         0.0808 
     99 H99        29.9964  -51.1741  -54.8427 H         1 UNK         0.0808 
    100 H100       29.6175  -52.4701  -55.9596 H         1 UNK         0.0808 
    101 H101       27.9647  -49.8884  -53.9908 H         1 UNK         0.3118 
    102 H102       24.9614  -48.0545  -54.1504 H         1 UNK         0.0546 
    103 H103       25.5284  -50.3418  -52.1866 H         1 UNK         0.0828 
    104 H104       24.0591  -50.1454  -53.1310 H         1 UNK         0.0828 
    105 H105       24.4626  -48.9659  -51.8960 H         1 UNK         0.0828 
    106 H106       26.9909  -48.3443  -52.1280 H         1 UNK         0.3005 
    107 H107       29.2326  -45.9166  -53.4403 H         1 UNK         0.1257 
    108 H108       27.2389  -45.8611  -51.1133 H         1 UNK         0.0775 
    109 H109       27.5902  -44.5618  -52.2182 H         1 UNK         0.0775 
    110 H110       28.5940  -42.5826  -50.8780 H         1 UNK         0.0840 
    111 H111       30.2258  -42.6406  -50.2672 H         1 UNK         0.0840 
    112 H112       29.4964  -47.3835  -51.1146 H         1 UNK         0.2987 
    113 H113       31.3745  -48.8509  -51.1325 H         1 UNK         0.0785 
    114 H114       29.1906  -49.9209  -50.4490 H         1 UNK         0.0798 
    115 H115       30.4702  -51.1208  -50.4825 H         1 UNK         0.0798 
    116 H116       29.3030  -51.0439  -51.7996 H         1 UNK         0.0798 
    117 H117       31.4405  -50.1480  -53.6881 H         1 UNK         0.3079 
    118 H118       34.7577  -51.3669  -53.2025 H         1 UNK         0.0794 
    119 H119       33.8437  -53.2639  -54.4863 H         1 UNK         0.0786 
    120 H120       32.1952  -52.6628  -54.3190 H         1 UNK         0.0786 
    121 H121       33.0629  -53.2900  -52.9249 H         1 UNK         0.0786 
    122 H122       33.2860  -49.4661  -54.4986 H         1 UNK         0.3032 
    123 H123       34.7158  -49.6127  -57.7140 H         1 UNK         0.1094 
    124 H124       31.7371  -49.6882  -56.9897 H         1 UNK         0.0794 
    125 H125       32.4194  -49.0257  -58.4783 H         1 UNK         0.0794 
    126 H126       32.5376  -50.7446  -58.1422 H         1 UNK         0.0794 
    127 H127       33.0584  -47.7302  -56.2320 H         1 UNK         0.3016 
@<TRIPOS>BOND
     1    1    2 1    
     2    1   67 1    
     3    1   68 1    
     4    1   69 1    
     5    2    3 2    
     6    2    4 am   BACKBONE|DICT|INTERRES
     7    4    5 1    
     8    4   70 1    
     9    5    6 1    
    10    5   65 1    
    11    5   71 1    
    12    6    7 1    
    13    6   72 1    
    14    6   73 1    
    15    7    8 1    
    16    8    9 1    
    17    8   74 1    
    18    8   75 1    
    19    9   10 ar   
    20    9   14 ar   
    21   10   11 ar   
    22   10   76 1    
    23   11   12 ar   
    24   11   48 1    
    25   12   13 ar   
    26   12   77 1    
    27   13   14 ar   
    28   13   15 1    
    29   14   78 1    
    30   15   16 1    
    31   15   79 1    
    32   15   80 1    
    33   16   17 1    
    34   17   18 1    
    35   17   81 1    
    36   17   82 1    
    37   18   19 1    
    38   18   22 1    
    39   18   83 1    
    40   19   20 am   BACKBONE|DICT|INTERRES
    41   19   21 2    
    42   20   84 1    
    43   20   85 1    
    44   22   23 am   BACKBONE|DICT|INTERRES
    45   22   86 1    
    46   23   24 2    
    47   23   25 1    
    48   25   26 1    
    49   25   27 1    
    50   25   87 1    
    51   26   88 1    
    52   26   89 1    
    53   26   90 1    
    54   27   28 am   BACKBONE|DICT|INTERRES
    55   27   91 1    
    56   28   29 2    
    57   28   30 1    
    58   30   31 1    
    59   30   32 1    
    60   30   92 1    
    61   31   93 1    
    62   31   94 1    
    63   31   95 1    
    64   32   33 am   BACKBONE|DICT|INTERRES
    65   32   96 1    
    66   33   34 2    
    67   33   35 1    
    68   35   36 1    
    69   35   37 1    
    70   35   97 1    
    71   36   98 1    
    72   36   99 1    
    73   36  100 1    
    74   37   38 am   BACKBONE|DICT|INTERRES
    75   37  101 1    
    76   38   39 2    
    77   38   40 1    
    78   40   41 1    
    79   40   42 1    
    80   40  102 1    
    81   41  103 1    
    82   41  104 1    
    83   41  105 1    
    84   42   43 am   BACKBONE|DICT|INTERRES
    85   42  106 1    
    86   43   44 2    
    87   43   45 1    
    88   45   46 1    
    89   45   49 1    
    90   45  107 1    
    91   46   47 1    
    92   46  108 1    
    93   46  109 1    
    94   47   48 1    
    95   48  110 1    
    96   48  111 1    
    97   49   50 am   BACKBONE|DICT|INTERRES
    98   49  112 1    
    99   50   51 2    
   100   50   52 1    
   101   52   53 1    
   102   52   54 1    
   103   52  113 1    
   104   53  114 1    
   105   53  115 1    
   106   53  116 1    
   107   54   55 am   BACKBONE|DICT|INTERRES
   108   54  117 1    
   109   55   56 2    
   110   55   57 1    
   111   57   58 1    
   112   57   59 1    
   113   57  118 1    
   114   58  119 1    
   115   58  120 1    
   116   58  121 1    
   117   59   60 am   BACKBONE|DICT|INTERRES
   118   59  122 1    
   119   60   61 2    
   120   60   62 1    
   121   62   63 1    
   122   62   64 1    
   123   62  123 1    
   124   63  124 1    
   125   63  125 1    
   126   63  126 1    
   127   64   65 am   BACKBONE|DICT|INTERRES
   128   64  127 1    
   129   65   66 2    
@<TRIPOS>SUBSTRUCTURE
     1 UNK         1 GROUP             0       ****    0 ROOT    
