@<TRIPOS>MOLECULE
3R134
127   129    1
SMALL
USER_CHARGES


@<TRIPOS>ATOM
      1 CA         29.9723  -49.6638  -51.2346 C.3       0 UNK        -0.1968 
      2 C          30.8541  -48.7354  -50.4105 C.2       0 UNK         0.4852 
      3 O          30.5418  -48.4678  -49.2493 O.2       0 UNK        -0.5359 
      4 N          31.9390  -48.2388  -51.0122 N.am      1 UNK        -0.4300 
      5 CA         32.9261  -47.3450  -50.4054 C.3       1 UNK         0.0863 
      6 C6         32.8378  -45.9004  -50.9805 C.3       11 UNK        -0.0953 
      7 S7         32.9619  -45.7818  -52.8025 S.3       11 UNK        -0.2369 
      8 C8         32.9194  -43.9761  -53.0372 C.3       11 UNK         0.0226 
      9 C9         32.0809  -43.5925  -54.2486 C.ar      11 UNK        -0.0699 
     10 C10        32.5307  -43.8920  -55.5362 C.ar      11 UNK        -0.0804 
     11 C11        31.7545  -43.5663  -56.6518 C.ar      11 UNK        -0.0871 
     12 C12        30.5396  -42.8999  -56.4750 C.ar      11 UNK        -0.1008 
     13 C13        30.0679  -42.5967  -55.1904 C.ar      11 UNK        -0.0735 
     14 C14        30.8528  -42.9436  -54.0852 C.ar      11 UNK        -0.0945 
     15 C15        28.7279  -41.8986  -54.9370 C.3       11 UNK         0.0169 
     16 S16        27.5687  -41.8273  -56.3494 S.3       11 UNK        -0.2669 
     17 C17        27.1944  -43.5965  -56.5913 C.3       11 UNK        -0.0850 
     18 CA         26.4755  -43.8979  -57.9329 C.3       10 UNK         0.0855 
     19 C          27.4591  -43.9885  -59.1414 C.2       10 UNK         0.5543 
     20 N          27.5476  -45.1057  -59.8545 N.am      10 UNK        -0.7343 
     21 O          28.1338  -43.0138  -59.4623 O.2       10 UNK        -0.5027 
     22 N          25.5861  -45.0616  -57.7960 N.am      10 UNK        -0.4495 
     23 C          24.4811  -45.2562  -58.5266 C.2       10 UNK         0.4903 
     24 O          24.0446  -44.4290  -59.3292 O.2       10 UNK        -0.4860 
     25 CA         23.7259  -46.5869  -58.3219 C.3       9 UNK         0.0227 
     26 CB         22.8734  -46.9705  -59.5502 C.3       9 UNK        -0.1964 
     27 N          24.5686  -47.7224  -57.9232 N.am      9 UNK        -0.4231 
     28 C          25.6328  -48.2274  -58.5626 C.2       9 UNK         0.5014 
     29 O          26.1323  -47.7159  -59.5668 O.2       9 UNK        -0.5270 
     30 CA         26.2241  -49.5289  -57.9791 C.3       8 UNK         0.0284 
     31 CB         27.4576  -50.0192  -58.7599 C.3       8 UNK        -0.1977 
     32 N          26.5796  -49.4203  -56.5616 N.am      8 UNK        -0.4342 
     33 C          25.7295  -49.3791  -55.5272 C.2       8 UNK         0.5039 
     34 O          24.5039  -49.4099  -55.6510 O.2       8 UNK        -0.5547 
     35 CA         26.3460  -49.2530  -54.1265 C.3       7 UNK         0.0281 
     36 CB         26.7727  -50.6296  -53.5901 C.3       7 UNK        -0.1963 
     37 N          27.4934  -48.3445  -54.1287 N.am      7 UNK        -0.4444 
     38 C          27.3955  -47.0102  -54.0546 C.2       7 UNK         0.5104 
     39 O          26.3316  -46.4060  -53.9166 O.2       7 UNK        -0.5100 
     40 CA         28.7055  -46.2074  -54.1518 C.3       6 UNK         0.0396 
     41 CB         29.3149  -46.0324  -52.7550 C.3       6 UNK        -0.1801 
     42 N          29.6993  -46.7844  -55.0667 N.am      6 UNK        -0.4747 
     43 C          29.5046  -46.9570  -56.3850 C.2       6 UNK         0.5012 
     44 O          28.4599  -46.6560  -56.9620 O.2       6 UNK        -0.5003 
     45 CA         30.6254  -47.6644  -57.1822 C.3       5 UNK         0.0782 
     46 C46        31.7774  -46.7116  -57.5879 C.3       11 UNK        -0.0868 
     47 S47        31.2814  -45.3653  -58.7165 S.3       11 UNK        -0.2515 
     48 C48        32.2165  -43.9475  -58.0508 C.3       11 UNK         0.0199 
     49 N          31.1777  -48.8435  -56.5052 N.am      5 UNK        -0.4607 
     50 C          30.5134  -49.8556  -55.9307 C.2       4 UNK         0.5031 
     51 O          29.2870  -49.9215  -55.8715 O.2       4 UNK        -0.5119 
     52 CA         31.3515  -50.9909  -55.3088 C.3       4 UNK         0.0263 
     53 CB         31.1411  -52.2974  -56.0912 C.3       4 UNK        -0.1967 
     54 N          32.7903  -50.7033  -55.2308 N.am      4 UNK        -0.4237 
     55 C          33.3427  -49.7965  -54.4150 C.2       3 UNK         0.4908 
     56 O          32.6961  -49.1242  -53.6054 O.2       3 UNK        -0.5102 
     57 CA         34.8529  -49.5702  -54.5730 C.3       3 UNK         0.0241 
     58 CB         35.1742  -48.8824  -55.9127 C.3       3 UNK        -0.1971 
     59 N          35.2999  -48.7133  -53.4839 N.am      3 UNK        -0.4139 
     60 C          36.4192  -48.8452  -52.7637 C.2       2 UNK         0.5016 
     61 O          37.3052  -49.6643  -53.0111 O.2       2 UNK        -0.5319 
     62 CA         36.5693  -47.9067  -51.5479 C.3       2 UNK         0.0286 
     63 CB         37.5474  -46.7643  -51.8661 C.3       2 UNK        -0.1963 
     64 N          35.2889  -47.3324  -51.1164 N.am      2 UNK        -0.4790 
     65 C          34.3027  -48.0266  -50.5311 C.2       1 UNK         0.5024 
     66 O          34.4423  -49.1844  -50.1309 O.2       1 UNK        -0.4888 
     67 H67        30.3137  -49.7392  -52.2668 H         1 UNK         0.0892 
     68 H68        29.9718  -50.6639  -50.8024 H         1 UNK         0.0892 
     69 H69        28.9471  -49.2948  -51.2447 H         1 UNK         0.0892 
     70 H70        32.1660  -48.5367  -51.9609 H         1 UNK         0.3107 
     71 H71        32.7465  -47.2741  -49.3308 H         1 UNK         0.0773 
     72 H72        31.8769  -45.4708  -50.6928 H         1 UNK         0.0680 
     73 H73        33.5902  -45.2552  -50.5231 H         1 UNK         0.0680 
     74 H74        33.9384  -43.6079  -53.1629 H         1 UNK         0.0650 
     75 H75        32.5270  -43.4941  -52.1406 H         1 UNK         0.0650 
     76 H76        33.4756  -44.4024  -55.6637 H         1 UNK         0.1397 
     77 H77        29.9579  -42.6461  -57.3499 H         1 UNK         0.1363 
     78 H78        30.5002  -42.7131  -53.0890 H         1 UNK         0.1355 
     79 H79        28.9318  -40.8767  -54.6148 H         1 UNK         0.0707 
     80 H80        28.2180  -42.3879  -54.1054 H         1 UNK         0.0707 
     81 H81        28.1120  -44.1773  -56.5177 H         1 UNK         0.1034 
     82 H82        26.5754  -43.9070  -55.7477 H         1 UNK         0.1034 
     83 H83        25.8331  -43.0414  -58.1473 H         1 UNK         0.0482 
     84 H84        27.0070  -45.9292  -59.6099 H         1 UNK         0.3460 
     85 H85        28.1880  -45.1410  -60.6301 H         1 UNK         0.3460 
     86 H86        25.9197  -45.8107  -57.2057 H         1 UNK         0.2989 
     87 H87        23.0432  -46.4156  -57.4886 H         1 UNK         0.0559 
     88 H88        23.4897  -47.1086  -60.4394 H         1 UNK         0.0848 
     89 H89        22.1393  -46.1970  -59.7794 H         1 UNK         0.0848 
     90 H90        22.3211  -47.8943  -59.3783 H         1 UNK         0.0848 
     91 H91        24.2818  -48.2183  -57.0801 H         1 UNK         0.3144 
     92 H92        25.4512  -50.2944  -58.0734 H         1 UNK         0.0727 
     93 H93        27.8376  -50.9581  -58.3565 H         1 UNK         0.0790 
     94 H94        28.2658  -49.2892  -58.7272 H         1 UNK         0.0790 
     95 H95        27.2148  -50.1915  -59.8092 H         1 UNK         0.0790 
     96 H96        27.5759  -49.4189  -56.3521 H         1 UNK         0.3215 
     97 H97        25.5782  -48.8561  -53.4584 H         1 UNK         0.0863 
     98 H98        27.1559  -50.5571  -52.5725 H         1 UNK         0.0808 
     99 H99        27.5450  -51.0893  -54.2075 H         1 UNK         0.0808 
    100 H100       25.9252  -51.3159  -53.5670 H         1 UNK         0.0808 
    101 H101       28.3957  -48.7522  -54.3401 H         1 UNK         0.3118 
    102 H102       28.4521  -45.2141  -54.5212 H         1 UNK         0.0546 
    103 H103       28.5718  -45.6771  -52.0398 H         1 UNK         0.0828 
    104 H104       30.1190  -45.3010  -52.7630 H         1 UNK         0.0828 
    105 H105       29.7158  -46.9686  -52.3737 H         1 UNK         0.0828 
    106 H106       30.5832  -47.0674  -54.6670 H         1 UNK         0.3005 
    107 H107       30.1632  -48.0305  -58.1006 H         1 UNK         0.1257 
    108 H108       32.5554  -47.2753  -58.1055 H         1 UNK         0.0775 
    109 H109       32.2561  -46.3091  -56.6961 H         1 UNK         0.0775 
    110 H110       33.2822  -44.1817  -58.0594 H         1 UNK         0.0840 
    111 H111       32.0863  -43.0949  -58.7188 H         1 UNK         0.0840 
    112 H112       32.1838  -48.8994  -56.4877 H         1 UNK         0.2987 
    113 H113       30.9802  -51.1402  -54.2929 H         1 UNK         0.0785 
    114 H114       30.0834  -52.5623  -56.1339 H         1 UNK         0.0798 
    115 H115       31.6612  -53.1314  -55.6196 H         1 UNK         0.0798 
    116 H116       31.4971  -52.2152  -57.1190 H         1 UNK         0.0798 
    117 H117       33.3866  -51.2155  -55.8659 H         1 UNK         0.3079 
    118 H118       35.3532  -50.5396  -54.5196 H         1 UNK         0.0794 
    119 H119       34.6589  -47.9255  -56.0090 H         1 UNK         0.0786 
    120 H120       34.8827  -49.5019  -56.7614 H         1 UNK         0.0786 
    121 H121       36.2435  -48.6928  -56.0090 H         1 UNK         0.0786 
    122 H122       34.6013  -48.0538  -53.1660 H         1 UNK         0.3032 
    123 H123       36.9803  -48.4986  -50.7267 H         1 UNK         0.1094 
    124 H124       37.1845  -46.1363  -52.6809 H         1 UNK         0.0794 
    125 H125       37.7104  -46.1273  -50.9966 H         1 UNK         0.0794 
    126 H126       38.5205  -47.1563  -52.1655 H         1 UNK         0.0794 
    127 H127       35.0863  -46.3912  -51.4256 H         1 UNK         0.3016 
@<TRIPOS>BOND
     1    1    2 1    
     2    1   67 1    
     3    1   68 1    
     4    1   69 1    
     5    2    3 2    
     6    2    4 am   BACKBONE|DICT|INTERRES
     7    4    5 1    
     8    4   70 1    
     9    5    6 1    
    10    5   65 1    
    11    5   71 1    
    12    6    7 1    
    13    6   72 1    
    14    6   73 1    
    15    7    8 1    
    16    8    9 1    
    17    8   74 1    
    18    8   75 1    
    19    9   10 ar   
    20    9   14 ar   
    21   10   11 ar   
    22   10   76 1    
    23   11   12 ar   
    24   11   48 1    
    25   12   13 ar   
    26   12   77 1    
    27   13   14 ar   
    28   13   15 1    
    29   14   78 1    
    30   15   16 1    
    31   15   79 1    
    32   15   80 1    
    33   16   17 1    
    34   17   18 1    
    35   17   81 1    
    36   17   82 1    
    37   18   19 1    
    38   18   22 1    
    39   18   83 1    
    40   19   20 am   BACKBONE|DICT|INTERRES
    41   19   21 2    
    42   20   84 1    
    43   20   85 1    
    44   22   23 am   BACKBONE|DICT|INTERRES
    45   22   86 1    
    46   23   24 2    
    47   23   25 1    
    48   25   26 1    
    49   25   27 1    
    50   25   87 1    
    51   26   88 1    
    52   26   89 1    
    53   26   90 1    
    54   27   28 am   BACKBONE|DICT|INTERRES
    55   27   91 1    
    56   28   29 2    
    57   28   30 1    
    58   30   31 1    
    59   30   32 1    
    60   30   92 1    
    61   31   93 1    
    62   31   94 1    
    63   31   95 1    
    64   32   33 am   BACKBONE|DICT|INTERRES
    65   32   96 1    
    66   33   34 2    
    67   33   35 1    
    68   35   36 1    
    69   35   37 1    
    70   35   97 1    
    71   36   98 1    
    72   36   99 1    
    73   36  100 1    
    74   37   38 am   BACKBONE|DICT|INTERRES
    75   37  101 1    
    76   38   39 2    
    77   38   40 1    
    78   40   41 1    
    79   40   42 1    
    80   40  102 1    
    81   41  103 1    
    82   41  104 1    
    83   41  105 1    
    84   42   43 am   BACKBONE|DICT|INTERRES
    85   42  106 1    
    86   43   44 2    
    87   43   45 1    
    88   45   46 1    
    89   45   49 1    
    90   45  107 1    
    91   46   47 1    
    92   46  108 1    
    93   46  109 1    
    94   47   48 1    
    95   48  110 1    
    96   48  111 1    
    97   49   50 am   BACKBONE|DICT|INTERRES
    98   49  112 1    
    99   50   51 2    
   100   50   52 1    
   101   52   53 1    
   102   52   54 1    
   103   52  113 1    
   104   53  114 1    
   105   53  115 1    
   106   53  116 1    
   107   54   55 am   BACKBONE|DICT|INTERRES
   108   54  117 1    
   109   55   56 2    
   110   55   57 1    
   111   57   58 1    
   112   57   59 1    
   113   57  118 1    
   114   58  119 1    
   115   58  120 1    
   116   58  121 1    
   117   59   60 am   BACKBONE|DICT|INTERRES
   118   59  122 1    
   119   60   61 2    
   120   60   62 1    
   121   62   63 1    
   122   62   64 1    
   123   62  123 1    
   124   63  124 1    
   125   63  125 1    
   126   63  126 1    
   127   64   65 am   BACKBONE|DICT|INTERRES
   128   64  127 1    
   129   65   66 2    
@<TRIPOS>SUBSTRUCTURE
     1 UNK         1 GROUP             0       ****    0 ROOT    
