@<TRIPOS>MOLECULE
3R134
127   129    1
SMALL
USER_CHARGES


@<TRIPOS>ATOM
      1 CA         37.1359  -46.8838  -55.3637 C.3       0 UNK        -0.1968 
      2 C          36.0553  -47.1720  -54.3333 C.2       0 UNK         0.4852 
      3 O          35.8648  -48.3304  -53.9624 O.2       0 UNK        -0.5359 
      4 N          35.3683  -46.1252  -53.8526 N.am      1 UNK        -0.4300 
      5 CA         34.2335  -46.1703  -52.9150 C.3       1 UNK         0.0863 
      6 C6         33.7231  -44.7506  -52.5686 C.3       11 UNK        -0.0953 
      7 S7         33.2696  -43.7782  -54.0439 S.3       11 UNK        -0.2369 
      8 C8         31.7374  -42.9667  -53.4948 C.3       11 UNK         0.0226 
      9 C9         30.5174  -43.8519  -53.7002 C.ar      11 UNK        -0.0699 
     10 C10        30.0075  -44.6217  -52.6484 C.ar      11 UNK        -0.0804 
     11 C11        28.8611  -45.3997  -52.8347 C.ar      11 UNK        -0.0871 
     12 C12        28.2208  -45.3880  -54.0748 C.ar      11 UNK        -0.1008 
     13 C13        28.7266  -44.6423  -55.1403 C.ar      11 UNK        -0.0735 
     14 C14        29.8820  -43.8761  -54.9465 C.ar      11 UNK        -0.0945 
     15 C15        27.9924  -44.7440  -56.4718 C.3       11 UNK         0.0169 
     16 S16        28.4140  -43.5113  -57.7437 S.3       11 UNK        -0.2669 
     17 C17        27.5751  -44.2568  -59.1864 C.3       11 UNK        -0.0850 
     18 CA         26.1617  -43.6741  -59.4550 C.3       10 UNK         0.0855 
     19 C          25.6016  -44.1696  -60.8223 C.2       10 UNK         0.5543 
     20 N          24.4503  -44.8295  -60.8852 N.am      10 UNK        -0.7343 
     21 O          26.2272  -43.9430  -61.8548 O.2       10 UNK        -0.5027 
     22 N          25.2463  -43.8927  -58.3220 N.am      10 UNK        -0.4495 
     23 C          24.1911  -43.1139  -58.0459 C.2       10 UNK         0.4903 
     24 O          23.9346  -42.0759  -58.6586 O.2       10 UNK        -0.4860 
     25 CA         23.2631  -43.5688  -56.8974 C.3       9 UNK         0.0227 
     26 CB         21.8382  -42.9880  -57.0242 C.3       9 UNK        -0.1964 
     27 N          23.2060  -45.0260  -56.7155 N.am      9 UNK        -0.4231 
     28 C          22.8532  -45.9436  -57.6276 C.2       9 UNK         0.5014 
     29 O          22.5196  -45.6836  -58.7859 O.2       9 UNK        -0.5270 
     30 CA         22.9530  -47.4129  -57.1828 C.3       8 UNK         0.0284 
     31 CB         21.6340  -48.1616  -57.4397 C.3       8 UNK        -0.1977 
     32 N          24.0480  -48.1036  -57.8691 N.am      8 UNK        -0.4342 
     33 C          25.3372  -47.7507  -57.7961 C.2       8 UNK         0.5039 
     34 O          25.7558  -46.8136  -57.1102 O.2       8 UNK        -0.5547 
     35 CA         26.3232  -48.5540  -58.6489 C.3       7 UNK         0.0281 
     36 CB         26.2004  -48.1493  -60.1337 C.3       7 UNK        -0.1963 
     37 N          27.6674  -48.2882  -58.1405 N.am      7 UNK        -0.4444 
     38 C          28.7985  -48.8894  -58.5207 C.2       7 UNK         0.5104 
     39 O          28.8507  -49.7922  -59.3568 O.2       7 UNK        -0.5100 
     40 CA         30.1014  -48.3970  -57.8660 C.3       6 UNK         0.0396 
     41 CB         30.6188  -47.1343  -58.5754 C.3       6 UNK        -0.1801 
     42 N          30.0233  -48.1490  -56.4210 N.am      6 UNK        -0.4747 
     43 C          29.8030  -49.0971  -55.4979 C.2       6 UNK         0.5012 
     44 O          29.4468  -50.2476  -55.7637 O.2       6 UNK        -0.5003 
     45 CA         30.0855  -48.7207  -54.0279 C.3       5 UNK         0.0782 
     46 C46        28.7866  -48.6320  -53.1913 C.3       11 UNK        -0.0868 
     47 S47        29.1156  -47.8668  -51.5641 S.3       11 UNK        -0.2515 
     48 C48        28.2954  -46.2440  -51.7009 C.3       11 UNK         0.0199 
     49 N          31.0094  -49.7048  -53.4566 N.am      5 UNK        -0.4607 
     50 C          32.3016  -49.8192  -53.7777 C.2       4 UNK         0.5031 
     51 O          32.9001  -49.0335  -54.5126 O.2       4 UNK        -0.5119 
     52 CA         33.0206  -51.0583  -53.2377 C.3       4 UNK         0.0263 
     53 CB         32.9541  -52.2015  -54.2702 C.3       4 UNK        -0.1967 
     54 N          34.4100  -50.7368  -52.9173 N.am      4 UNK        -0.4237 
     55 C          35.1956  -51.4836  -52.1284 C.2       3 UNK         0.4908 
     56 O          34.8373  -52.5404  -51.6063 O.2       3 UNK        -0.5102 
     57 CA         36.6106  -50.9610  -51.8482 C.3       3 UNK         0.0241 
     58 CB         37.5269  -51.1480  -53.0697 C.3       3 UNK        -0.1971 
     59 N          36.5694  -49.5531  -51.4569 N.am      3 UNK        -0.4139 
     60 C          36.4035  -49.1251  -50.1968 C.2       2 UNK         0.5016 
     61 O          36.3551  -49.8750  -49.2205 O.2       2 UNK        -0.5319 
     62 CA         36.2741  -47.6072  -49.9706 C.3       2 UNK         0.0286 
     63 CB         37.6246  -47.0111  -49.5412 C.3       2 UNK        -0.1963 
     64 N          35.7823  -46.8802  -51.1427 N.am      2 UNK        -0.4790 
     65 C          34.5270  -46.9437  -51.6114 C.2       1 UNK         0.5024 
     66 O          33.6270  -47.5832  -51.0666 O.2       1 UNK        -0.4888 
     67 H67        38.1034  -47.2259  -54.9974 H         1 UNK         0.0892 
     68 H68        36.9164  -47.4123  -56.2909 H         1 UNK         0.0892 
     69 H69        37.2135  -45.8203  -55.5888 H         1 UNK         0.0892 
     70 H70        35.5784  -45.2028  -54.2071 H         1 UNK         0.3107 
     71 H71        33.4272  -46.7016  -53.4230 H         1 UNK         0.0773 
     72 H72        32.8594  -44.8172  -51.9055 H         1 UNK         0.0680 
     73 H73        34.4832  -44.1904  -52.0204 H         1 UNK         0.0680 
     74 H74        31.6131  -42.0433  -54.0625 H         1 UNK         0.0650 
     75 H75        31.8279  -42.6653  -52.4500 H         1 UNK         0.0650 
     76 H76        30.4959  -44.6122  -51.6838 H         1 UNK         0.1397 
     77 H77        27.3228  -45.9735  -54.2203 H         1 UNK         0.1363 
     78 H78        30.2941  -43.2917  -55.7568 H         1 UNK         0.1355 
     79 H79        26.9225  -44.6676  -56.2791 H         1 UNK         0.0707 
     80 H80        28.1770  -45.7402  -56.8693 H         1 UNK         0.0707 
     81 H81        28.2235  -44.0840  -60.0477 H         1 UNK         0.1034 
     82 H82        27.5256  -45.3400  -59.0710 H         1 UNK         0.1034 
     83 H83        26.2881  -42.5960  -59.5724 H         1 UNK         0.0482 
     84 H84        24.1103  -45.1311  -61.7839 H         1 UNK         0.3460 
     85 H85        23.8966  -45.0134  -60.0550 H         1 UNK         0.3460 
     86 H86        25.3745  -44.7508  -57.7988 H         1 UNK         0.2989 
     87 H87        23.7023  -43.1671  -55.9832 H         1 UNK         0.0559 
     88 H88        21.8555  -41.8974  -57.0200 H         1 UNK         0.0848 
     89 H89        21.2055  -43.3016  -56.1940 H         1 UNK         0.0848 
     90 H90        21.3559  -43.3017  -57.9507 H         1 UNK         0.0848 
     91 H91        23.5238  -45.3615  -55.8161 H         1 UNK         0.3144 
     92 H92        23.1570  -47.4473  -56.1104 H         1 UNK         0.0727 
     93 H93        21.6778  -49.1848  -57.0659 H         1 UNK         0.0790 
     94 H94        21.3909  -48.2018  -58.5024 H         1 UNK         0.0790 
     95 H95        20.8022  -47.6685  -56.9346 H         1 UNK         0.0790 
     96 H96        23.7857  -48.8618  -58.4825 H         1 UNK         0.3215 
     97 H97        26.1059  -49.6175  -58.5306 H         1 UNK         0.0863 
     98 H98        26.8403  -48.7570  -60.7728 H         1 UNK         0.0808 
     99 H99        26.4693  -47.1055  -60.2920 H         1 UNK         0.0808 
    100 H100       25.1802  -48.2780  -60.4973 H         1 UNK         0.0808 
    101 H101       27.6868  -47.5864  -57.4110 H         1 UNK         0.3118 
    102 H102       30.8464  -49.1822  -58.0124 H         1 UNK         0.0546 
    103 H103       29.9533  -46.2829  -58.4346 H         1 UNK         0.0828 
    104 H104       30.7090  -47.3001  -59.6499 H         1 UNK         0.0828 
    105 H105       31.6064  -46.8507  -58.2113 H         1 UNK         0.0828 
    106 H106       30.3143  -47.2322  -56.1121 H         1 UNK         0.3005 
    107 H107       30.5766  -47.7442  -54.0110 H         1 UNK         0.1257 
    108 H108       28.0107  -48.0749  -53.7144 H         1 UNK         0.0775 
    109 H109       28.3663  -49.6261  -53.0279 H         1 UNK         0.0775 
    110 H110       27.2226  -46.3943  -51.8333 H         1 UNK         0.0840 
    111 H111       28.4095  -45.7115  -50.7555 H         1 UNK         0.0840 
    112 H112       30.5879  -50.4085  -52.8688 H         1 UNK         0.2987 
    113 H113       32.5192  -51.3732  -52.3196 H         1 UNK         0.0785 
    114 H114       31.9220  -52.4182  -54.5495 H         1 UNK         0.0798 
    115 H115       33.3807  -53.1247  -53.8784 H         1 UNK         0.0798 
    116 H116       33.4920  -51.9451  -55.1839 H         1 UNK         0.0798 
    117 H117       34.7651  -49.8710  -53.3215 H         1 UNK         0.3079 
    118 H118       37.0311  -51.5509  -51.0305 H         1 UNK         0.0794 
    119 H119       38.5376  -50.7960  -52.8629 H         1 UNK         0.0786 
    120 H120       37.1602  -50.6140  -53.9465 H         1 UNK         0.0786 
    121 H121       37.5998  -52.2021  -53.3404 H         1 UNK         0.0786 
    122 H122       36.5183  -48.8808  -52.2167 H         1 UNK         0.3032 
    123 H123       35.5603  -47.4622  -49.1561 H         1 UNK         0.1094 
    124 H124       38.3794  -47.1154  -50.3217 H         1 UNK         0.0794 
    125 H125       37.5329  -45.9518  -49.2998 H         1 UNK         0.0794 
    126 H126       38.0062  -47.5121  -48.6502 H         1 UNK         0.0794 
    127 H127       36.4554  -46.3290  -51.6559 H         1 UNK         0.3016 
@<TRIPOS>BOND
     1    1    2 1    
     2    1   67 1    
     3    1   68 1    
     4    1   69 1    
     5    2    3 2    
     6    2    4 am   BACKBONE|DICT|INTERRES
     7    4    5 1    
     8    4   70 1    
     9    5    6 1    
    10    5   65 1    
    11    5   71 1    
    12    6    7 1    
    13    6   72 1    
    14    6   73 1    
    15    7    8 1    
    16    8    9 1    
    17    8   74 1    
    18    8   75 1    
    19    9   10 ar   
    20    9   14 ar   
    21   10   11 ar   
    22   10   76 1    
    23   11   12 ar   
    24   11   48 1    
    25   12   13 ar   
    26   12   77 1    
    27   13   14 ar   
    28   13   15 1    
    29   14   78 1    
    30   15   16 1    
    31   15   79 1    
    32   15   80 1    
    33   16   17 1    
    34   17   18 1    
    35   17   81 1    
    36   17   82 1    
    37   18   19 1    
    38   18   22 1    
    39   18   83 1    
    40   19   20 am   BACKBONE|DICT|INTERRES
    41   19   21 2    
    42   20   84 1    
    43   20   85 1    
    44   22   23 am   BACKBONE|DICT|INTERRES
    45   22   86 1    
    46   23   24 2    
    47   23   25 1    
    48   25   26 1    
    49   25   27 1    
    50   25   87 1    
    51   26   88 1    
    52   26   89 1    
    53   26   90 1    
    54   27   28 am   BACKBONE|DICT|INTERRES
    55   27   91 1    
    56   28   29 2    
    57   28   30 1    
    58   30   31 1    
    59   30   32 1    
    60   30   92 1    
    61   31   93 1    
    62   31   94 1    
    63   31   95 1    
    64   32   33 am   BACKBONE|DICT|INTERRES
    65   32   96 1    
    66   33   34 2    
    67   33   35 1    
    68   35   36 1    
    69   35   37 1    
    70   35   97 1    
    71   36   98 1    
    72   36   99 1    
    73   36  100 1    
    74   37   38 am   BACKBONE|DICT|INTERRES
    75   37  101 1    
    76   38   39 2    
    77   38   40 1    
    78   40   41 1    
    79   40   42 1    
    80   40  102 1    
    81   41  103 1    
    82   41  104 1    
    83   41  105 1    
    84   42   43 am   BACKBONE|DICT|INTERRES
    85   42  106 1    
    86   43   44 2    
    87   43   45 1    
    88   45   46 1    
    89   45   49 1    
    90   45  107 1    
    91   46   47 1    
    92   46  108 1    
    93   46  109 1    
    94   47   48 1    
    95   48  110 1    
    96   48  111 1    
    97   49   50 am   BACKBONE|DICT|INTERRES
    98   49  112 1    
    99   50   51 2    
   100   50   52 1    
   101   52   53 1    
   102   52   54 1    
   103   52  113 1    
   104   53  114 1    
   105   53  115 1    
   106   53  116 1    
   107   54   55 am   BACKBONE|DICT|INTERRES
   108   54  117 1    
   109   55   56 2    
   110   55   57 1    
   111   57   58 1    
   112   57   59 1    
   113   57  118 1    
   114   58  119 1    
   115   58  120 1    
   116   58  121 1    
   117   59   60 am   BACKBONE|DICT|INTERRES
   118   59  122 1    
   119   60   61 2    
   120   60   62 1    
   121   62   63 1    
   122   62   64 1    
   123   62  123 1    
   124   63  124 1    
   125   63  125 1    
   126   63  126 1    
   127   64   65 am   BACKBONE|DICT|INTERRES
   128   64  127 1    
   129   65   66 2    
@<TRIPOS>SUBSTRUCTURE
     1 UNK         1 GROUP             0       ****    0 ROOT    
