@<TRIPOS>MOLECULE
3R134
127   129    1
SMALL
USER_CHARGES


@<TRIPOS>ATOM
      1 CA         33.2819  -47.7626  -57.3439 C.3       0 UNK        -0.1968 
      2 C          33.4582  -47.1026  -55.9854 C.2       0 UNK         0.4852 
      3 O          33.2479  -47.7583  -54.9635 O.2       0 UNK        -0.5359 
      4 N          33.8458  -45.8191  -55.9604 N.am      1 UNK        -0.4300 
      5 CA         34.0386  -45.0196  -54.7462 C.3       1 UNK         0.0863 
      6 C6         34.3704  -43.5418  -55.0847 C.3       11 UNK        -0.0953 
      7 S7         34.4744  -42.4497  -53.6215 S.3       11 UNK        -0.2369 
      8 C8         32.7800  -41.7898  -53.5046 C.3       11 UNK         0.0226 
      9 C9         31.7505  -42.8913  -53.2956 C.ar      11 UNK        -0.0699 
     10 C10        31.7888  -43.6849  -52.1442 C.ar      11 UNK        -0.0804 
     11 C11        30.8742  -44.7283  -51.9696 C.ar      11 UNK        -0.0871 
     12 C12        29.8928  -44.9497  -52.9401 C.ar      11 UNK        -0.1008 
     13 C13        29.8525  -44.1708  -54.0990 C.ar      11 UNK        -0.0735 
     14 C14        30.7803  -43.1402  -54.2705 C.ar      11 UNK        -0.0945 
     15 C15        28.8292  -44.4619  -55.1822 C.3       11 UNK         0.0169 
     16 S16        27.2731  -43.5728  -54.8834 S.3       11 UNK        -0.2669 
     17 C17        26.8650  -42.9686  -56.5569 C.3       11 UNK        -0.0850 
     18 CA         25.9981  -43.9712  -57.3717 C.3       10 UNK         0.0855 
     19 C          25.3447  -43.3341  -58.6349 C.2       10 UNK         0.5543 
     20 N          24.5917  -44.1021  -59.4105 N.am      10 UNK        -0.7343 
     21 O          25.5089  -42.1490  -58.9174 O.2       10 UNK        -0.5027 
     22 N          26.7006  -45.2337  -57.6637 N.am      10 UNK        -0.4495 
     23 C          27.7278  -45.3965  -58.5122 C.2       10 UNK         0.4903 
     24 O          28.2824  -44.4758  -59.1123 O.2       10 UNK        -0.4860 
     25 CA         28.2175  -46.8358  -58.7451 C.3       9 UNK         0.0227 
     26 CB         29.2688  -47.2462  -57.6996 C.3       9 UNK        -0.1964 
     27 N          27.1031  -47.7849  -58.7275 N.am      9 UNK        -0.4231 
     28 C          26.3532  -48.0918  -59.7966 C.2       9 UNK         0.5014 
     29 O          26.5942  -47.7006  -60.9394 O.2       9 UNK        -0.5270 
     30 CA         25.1160  -48.9796  -59.5583 C.3       8 UNK         0.0284 
     31 CB         25.4766  -50.4636  -59.7351 C.3       8 UNK        -0.1977 
     32 N          24.5032  -48.7837  -58.2417 N.am      8 UNK        -0.4342 
     33 C          23.9173  -47.6505  -57.8290 C.2       8 UNK         0.5039 
     34 O          23.7519  -46.6660  -58.5482 O.2       8 UNK        -0.5547 
     35 CA         23.4878  -47.5804  -56.3511 C.3       7 UNK         0.0281 
     36 CB         22.0007  -47.9407  -56.2073 C.3       7 UNK        -0.1963 
     37 N          24.2859  -48.4258  -55.4524 N.am      7 UNK        -0.4444 
     38 C          25.6092  -48.3191  -55.2744 C.2       7 UNK         0.5104 
     39 O          26.3163  -47.4972  -55.8652 O.2       7 UNK        -0.5100 
     40 CA         26.2584  -49.3429  -54.3385 C.3       6 UNK         0.0396 
     41 CB         26.3633  -50.7143  -55.0373 C.3       6 UNK        -0.1801 
     42 N          27.5872  -48.8567  -53.9809 N.am      6 UNK        -0.4747 
     43 C          28.3704  -49.3436  -53.0135 C.2       6 UNK         0.5012 
     44 O          28.0417  -50.2669  -52.2649 O.2       6 UNK        -0.5003 
     45 CA         29.7669  -48.7063  -52.8590 C.3       5 UNK         0.0782 
     46 C46        29.9712  -48.2003  -51.4084 C.3       11 UNK        -0.0868 
     47 S47        31.5401  -47.2973  -51.1648 S.3       11 UNK        -0.2515 
     48 C48        30.9589  -45.6203  -50.7398 C.3       11 UNK         0.0199 
     49 N          30.8046  -49.6585  -53.2617 N.am      5 UNK        -0.4607 
     50 C          30.9620  -50.1498  -54.4979 C.2       4 UNK         0.5031 
     51 O          30.2759  -49.8145  -55.4646 O.2       4 UNK        -0.5119 
     52 CA         32.1182  -51.1399  -54.6793 C.3       4 UNK         0.0263 
     53 CB         32.1894  -51.7372  -56.0995 C.3       4 UNK        -0.1967 
     54 N          33.3601  -50.4416  -54.3685 N.am      4 UNK        -0.4237 
     55 C          34.4814  -51.0083  -53.9108 C.2       3 UNK         0.4908 
     56 O          34.5902  -52.2114  -53.6709 O.2       3 UNK        -0.5102 
     57 CA         35.6868  -50.0878  -53.6759 C.3       3 UNK         0.0241 
     58 CB         36.4517  -49.8504  -54.9892 C.3       3 UNK        -0.1971 
     59 N          35.2893  -48.7981  -53.1047 N.am      3 UNK        -0.4139 
     60 C          35.8501  -48.2306  -52.0275 C.2       2 UNK         0.5016 
     61 O          36.7563  -48.7554  -51.3772 O.2       2 UNK        -0.5319 
     62 CA         35.3102  -46.8527  -51.5851 C.3       2 UNK         0.0286 
     63 CB         36.4008  -45.9609  -50.9539 C.3       2 UNK        -0.1963 
     64 N          34.5865  -46.1246  -52.6355 N.am      2 UNK        -0.4790 
     65 C          35.0725  -45.6674  -53.8003 C.2       1 UNK         0.5024 
     66 O          36.2477  -45.7690  -54.1585 O.2       1 UNK        -0.4888 
     67 H67        32.2978  -48.2269  -57.4058 H         1 UNK         0.0892 
     68 H68        33.3718  -47.0470  -58.1608 H         1 UNK         0.0892 
     69 H69        34.0326  -48.5396  -57.4838 H         1 UNK         0.0892 
     70 H70        34.0383  -45.3450  -56.8308 H         1 UNK         0.3107 
     71 H71        33.0724  -45.0365  -54.2423 H         1 UNK         0.0773 
     72 H72        35.3215  -43.4814  -55.6168 H         1 UNK         0.0680 
     73 H73        33.6205  -43.1367  -55.7660 H         1 UNK         0.0680 
     74 H74        32.5603  -41.2113  -54.4033 H         1 UNK         0.0650 
     75 H75        32.7298  -41.0915  -52.6683 H         1 UNK         0.0650 
     76 H76        32.5511  -43.5019  -51.3988 H         1 UNK         0.1397 
     77 H77        29.1674  -45.7379  -52.8025 H         1 UNK         0.1363 
     78 H78        30.7520  -42.5396  -55.1694 H         1 UNK         0.1355 
     79 H79        29.2450  -44.2016  -56.1563 H         1 UNK         0.0707 
     80 H80        28.6153  -45.5300  -55.2177 H         1 UNK         0.0707 
     81 H81        27.7717  -42.6987  -57.1003 H         1 UNK         0.1034 
     82 H82        26.3210  -42.0325  -56.4180 H         1 UNK         0.1034 
     83 H83        25.1546  -44.2463  -56.7370 H         1 UNK         0.0482 
     84 H84        24.3925  -45.0669  -59.1492 H         1 UNK         0.3460 
     85 H85        24.1633  -43.7071  -60.2318 H         1 UNK         0.3460 
     86 H86        26.3608  -46.0467  -57.1616 H         1 UNK         0.2989 
     87 H87        28.7011  -46.8645  -59.7240 H         1 UNK         0.0559 
     88 H88        28.8462  -47.3232  -56.6991 H         1 UNK         0.0848 
     89 H89        30.0846  -46.5234  -57.6569 H         1 UNK         0.0848 
     90 H90        29.7072  -48.2144  -57.9421 H         1 UNK         0.0848 
     91 H91        26.8061  -48.1075  -57.8151 H         1 UNK         0.3144 
     92 H92        24.3727  -48.7153  -60.3136 H         1 UNK         0.0727 
     93 H93        24.5950  -51.0997  -59.6535 H         1 UNK         0.0790 
     94 H94        26.2026  -50.7960  -58.9918 H         1 UNK         0.0790 
     95 H95        25.9128  -50.6435  -60.7189 H         1 UNK         0.0790 
     96 H96        24.5713  -49.5488  -57.5871 H         1 UNK         0.3215 
     97 H97        23.6212  -46.5453  -56.0289 H         1 UNK         0.0863 
     98 H98        21.8060  -48.9770  -56.4865 H         1 UNK         0.0808 
     99 H99        21.3832  -47.3094  -56.8482 H         1 UNK         0.0808 
    100 H100       21.6533  -47.7960  -55.1841 H         1 UNK         0.0808 
    101 H101       23.7833  -49.1309  -54.9314 H         1 UNK         0.3118 
    102 H102       25.6512  -49.4264  -53.4350 H         1 UNK         0.0546 
    103 H103       26.7893  -51.4696  -54.3772 H         1 UNK         0.0828 
    104 H104       26.9910  -50.6630  -55.9282 H         1 UNK         0.0828 
    105 H105       25.3839  -51.0820  -55.3453 H         1 UNK         0.0828 
    106 H106       27.9059  -48.0962  -54.5689 H         1 UNK         0.3005 
    107 H107       29.8393  -47.8535  -53.5366 H         1 UNK         0.1257 
    108 H108       29.9628  -49.0388  -50.7091 H         1 UNK         0.0775 
    109 H109       29.1366  -47.5635  -51.1107 H         1 UNK         0.0775 
    110 H110       29.9931  -45.6555  -50.2343 H         1 UNK         0.0840 
    111 H111       31.6548  -45.1958  -50.0143 H         1 UNK         0.0840 
    112 H112       31.4257  -49.9701  -52.5300 H         1 UNK         0.2987 
    113 H113       31.9637  -51.9520  -53.9656 H         1 UNK         0.0785 
    114 H114       32.9894  -52.4729  -56.1820 H         1 UNK         0.0798 
    115 H115       31.2574  -52.2414  -56.3580 H         1 UNK         0.0798 
    116 H116       32.3648  -50.9661  -56.8507 H         1 UNK         0.0798 
    117 H117       33.3341  -49.4360  -54.5467 H         1 UNK         0.3079 
    118 H118       36.3517  -50.6147  -52.9882 H         1 UNK         0.0794 
    119 H119       37.3551  -49.2647  -54.8178 H         1 UNK         0.0786 
    120 H120       35.8437  -49.3177  -55.7210 H         1 UNK         0.0786 
    121 H121       36.7575  -50.7951  -55.4411 H         1 UNK         0.0786 
    122 H122       34.5497  -48.2930  -53.5840 H         1 UNK         0.3032 
    123 H123       34.5765  -47.0661  -50.8063 H         1 UNK         0.1094 
    124 H124       37.2209  -45.7710  -51.6468 H         1 UNK         0.0794 
    125 H125       35.9950  -44.9986  -50.6419 H         1 UNK         0.0794 
    126 H126       36.8286  -46.4320  -50.0680 H         1 UNK         0.0794 
    127 H127       33.5917  -46.0289  -52.4752 H         1 UNK         0.3016 
@<TRIPOS>BOND
     1    1    2 1    
     2    1   67 1    
     3    1   68 1    
     4    1   69 1    
     5    2    3 2    
     6    2    4 am   BACKBONE|DICT|INTERRES
     7    4    5 1    
     8    4   70 1    
     9    5    6 1    
    10    5   65 1    
    11    5   71 1    
    12    6    7 1    
    13    6   72 1    
    14    6   73 1    
    15    7    8 1    
    16    8    9 1    
    17    8   74 1    
    18    8   75 1    
    19    9   10 ar   
    20    9   14 ar   
    21   10   11 ar   
    22   10   76 1    
    23   11   12 ar   
    24   11   48 1    
    25   12   13 ar   
    26   12   77 1    
    27   13   14 ar   
    28   13   15 1    
    29   14   78 1    
    30   15   16 1    
    31   15   79 1    
    32   15   80 1    
    33   16   17 1    
    34   17   18 1    
    35   17   81 1    
    36   17   82 1    
    37   18   19 1    
    38   18   22 1    
    39   18   83 1    
    40   19   20 am   BACKBONE|DICT|INTERRES
    41   19   21 2    
    42   20   84 1    
    43   20   85 1    
    44   22   23 am   BACKBONE|DICT|INTERRES
    45   22   86 1    
    46   23   24 2    
    47   23   25 1    
    48   25   26 1    
    49   25   27 1    
    50   25   87 1    
    51   26   88 1    
    52   26   89 1    
    53   26   90 1    
    54   27   28 am   BACKBONE|DICT|INTERRES
    55   27   91 1    
    56   28   29 2    
    57   28   30 1    
    58   30   31 1    
    59   30   32 1    
    60   30   92 1    
    61   31   93 1    
    62   31   94 1    
    63   31   95 1    
    64   32   33 am   BACKBONE|DICT|INTERRES
    65   32   96 1    
    66   33   34 2    
    67   33   35 1    
    68   35   36 1    
    69   35   37 1    
    70   35   97 1    
    71   36   98 1    
    72   36   99 1    
    73   36  100 1    
    74   37   38 am   BACKBONE|DICT|INTERRES
    75   37  101 1    
    76   38   39 2    
    77   38   40 1    
    78   40   41 1    
    79   40   42 1    
    80   40  102 1    
    81   41  103 1    
    82   41  104 1    
    83   41  105 1    
    84   42   43 am   BACKBONE|DICT|INTERRES
    85   42  106 1    
    86   43   44 2    
    87   43   45 1    
    88   45   46 1    
    89   45   49 1    
    90   45  107 1    
    91   46   47 1    
    92   46  108 1    
    93   46  109 1    
    94   47   48 1    
    95   48  110 1    
    96   48  111 1    
    97   49   50 am   BACKBONE|DICT|INTERRES
    98   49  112 1    
    99   50   51 2    
   100   50   52 1    
   101   52   53 1    
   102   52   54 1    
   103   52  113 1    
   104   53  114 1    
   105   53  115 1    
   106   53  116 1    
   107   54   55 am   BACKBONE|DICT|INTERRES
   108   54  117 1    
   109   55   56 2    
   110   55   57 1    
   111   57   58 1    
   112   57   59 1    
   113   57  118 1    
   114   58  119 1    
   115   58  120 1    
   116   58  121 1    
   117   59   60 am   BACKBONE|DICT|INTERRES
   118   59  122 1    
   119   60   61 2    
   120   60   62 1    
   121   62   63 1    
   122   62   64 1    
   123   62  123 1    
   124   63  124 1    
   125   63  125 1    
   126   63  126 1    
   127   64   65 am   BACKBONE|DICT|INTERRES
   128   64  127 1    
   129   65   66 2    
@<TRIPOS>SUBSTRUCTURE
     1 UNK         1 GROUP             0       ****    0 ROOT    
