@<TRIPOS>MOLECULE
3R134
127   129    1
SMALL
USER_CHARGES


@<TRIPOS>ATOM
      1 CA         39.6340  -44.9439  -55.1465 C.3       0 UNK        -0.1968 
      2 C          38.2892  -45.6552  -55.1567 C.2       0 UNK         0.4852 
      3 O          38.0874  -46.5727  -55.9547 O.2       0 UNK        -0.5359 
      4 N          37.3679  -45.2493  -54.2721 N.am      1 UNK        -0.4300 
      5 CA         36.0245  -45.8183  -54.1175 C.3       1 UNK         0.0863 
      6 C6         35.0446  -44.7730  -53.5230 C.3       11 UNK        -0.0953 
      7 S7         33.2970  -45.1725  -53.8595 S.3       11 UNK        -0.2369 
      8 C8         32.5525  -43.5284  -53.6499 C.3       11 UNK         0.0226 
      9 C9         31.0359  -43.5929  -53.7260 C.ar      11 UNK        -0.0699 
     10 C10        30.2767  -43.7078  -52.5574 C.ar      11 UNK        -0.0804 
     11 C11        28.8804  -43.7447  -52.6188 C.ar      11 UNK        -0.0871 
     12 C12        28.2461  -43.6814  -53.8631 C.ar      11 UNK        -0.1008 
     13 C13        28.9949  -43.5653  -55.0383 C.ar      11 UNK        -0.0735 
     14 C14        30.3900  -43.5180  -54.9635 C.ar      11 UNK        -0.0945 
     15 C15        28.2922  -43.4903  -56.3847 C.3       11 UNK         0.0169 
     16 S16        27.3691  -41.9314  -56.5470 S.3       11 UNK        -0.2669 
     17 C17        26.7449  -42.0214  -58.2584 C.3       11 UNK        -0.0850 
     18 CA         25.3589  -42.7294  -58.3464 C.3       10 UNK         0.0855 
     19 C          24.5112  -42.2874  -59.5825 C.2       10 UNK         0.5543 
     20 N          23.6349  -43.1317  -60.1136 N.am      10 UNK        -0.7343 
     21 O          24.6156  -41.1544  -60.0465 O.2       10 UNK        -0.5027 
     22 N          25.4664  -44.1906  -58.1587 N.am      10 UNK        -0.4495 
     23 C          26.0446  -45.0480  -59.0122 C.2       10 UNK         0.4903 
     24 O          26.5562  -44.7130  -60.0817 O.2       10 UNK        -0.4860 
     25 CA         26.0167  -46.5297  -58.6003 C.3       9 UNK         0.0227 
     26 CB         25.6932  -47.4553  -59.7907 C.3       9 UNK        -0.1964 
     27 N          27.2422  -46.9645  -57.9218 N.am      9 UNK        -0.4231 
     28 C          28.4987  -47.0092  -58.3968 C.2       9 UNK         0.5014 
     29 O          28.8551  -46.5834  -59.4953 O.2       9 UNK        -0.5270 
     30 CA         29.5390  -47.7153  -57.5072 C.3       8 UNK         0.0284 
     31 CB         30.0707  -46.7740  -56.4150 C.3       8 UNK        -0.1977 
     32 N          29.0118  -48.9343  -56.8902 N.am      8 UNK        -0.4342 
     33 C          28.6122  -50.0290  -57.5548 C.2       8 UNK         0.5039 
     34 O          28.7360  -50.1824  -58.7704 O.2       8 UNK        -0.5547 
     35 CA         27.9333  -51.1295  -56.7249 C.3       7 UNK         0.0281 
     36 CB         28.9727  -52.0456  -56.0579 C.3       7 UNK        -0.1963 
     37 N          27.0471  -50.5586  -55.7085 N.am      7 UNK        -0.4444 
     38 C          25.8009  -50.1272  -55.9489 C.2       7 UNK         0.5104 
     39 O          25.2367  -50.2342  -57.0376 O.2       7 UNK        -0.5100 
     40 CA         25.0506  -49.4611  -54.7805 C.3       6 UNK         0.0396 
     41 CB         24.1887  -50.4957  -54.0399 C.3       6 UNK        -0.1801 
     42 N          25.9358  -48.7947  -53.8211 N.am      6 UNK        -0.4747 
     43 C          26.6180  -47.6672  -54.0706 C.2       6 UNK         0.5012 
     44 O          26.5597  -47.0552  -55.1374 O.2       6 UNK        -0.5003 
     45 CA         27.5668  -47.1733  -52.9587 C.3       5 UNK         0.0782 
     46 C46        26.8023  -46.2762  -51.9569 C.3       11 UNK        -0.0868 
     47 S47        27.9125  -45.5258  -50.7189 S.3       11 UNK        -0.2515 
     48 C48        28.0605  -43.8209  -51.3385 C.3       11 UNK         0.0199 
     49 N          28.2853  -48.2660  -52.2851 N.am      5 UNK        -0.4607 
     50 C          29.0800  -49.1491  -52.8992 C.2       4 UNK         0.5031 
     51 O          29.2230  -49.1982  -54.1221 O.2       4 UNK        -0.5119 
     52 CA         29.7797  -50.1926  -52.0149 C.3       4 UNK         0.0263 
     53 CB         28.8441  -51.3869  -51.7646 C.3       4 UNK        -0.1967 
     54 N          31.0019  -50.6730  -52.6626 N.am      4 UNK        -0.4237 
     55 C          32.1259  -49.9549  -52.7709 C.2       3 UNK         0.4908 
     56 O          32.3215  -48.8843  -52.1896 O.2       3 UNK        -0.5102 
     57 CA         33.1935  -50.5153  -53.7163 C.3       3 UNK         0.0241 
     58 CB         32.8202  -50.2295  -55.1852 C.3       3 UNK        -0.1971 
     59 N          34.4753  -49.8929  -53.4027 N.am      3 UNK        -0.4139 
     60 C          35.6819  -50.3745  -53.7172 C.2       2 UNK         0.5016 
     61 O          35.8544  -51.4414  -54.3107 O.2       2 UNK        -0.5319 
     62 CA         36.8913  -49.5000  -53.3303 C.3       2 UNK         0.0286 
     63 CB         38.2327  -50.0944  -53.7996 C.3       2 UNK        -0.1963 
     64 N          36.7602  -48.1480  -53.8794 N.am      2 UNK        -0.4790 
     65 C          36.0784  -47.1420  -53.3190 C.2       1 UNK         0.5024 
     66 O          35.5256  -47.2411  -52.2224 O.2       1 UNK        -0.4888 
     67 H67        40.4321  -45.6544  -54.9330 H         1 UNK         0.0892 
     68 H68        39.8280  -44.4956  -56.1205 H         1 UNK         0.0892 
     69 H69        39.6728  -44.1543  -54.3962 H         1 UNK         0.0892 
     70 H70        37.6050  -44.5150  -53.6199 H         1 UNK         0.3107 
     71 H71        35.6599  -46.0704  -55.1162 H         1 UNK         0.0773 
     72 H72        35.1902  -44.6443  -52.4487 H         1 UNK         0.0680 
     73 H73        35.2433  -43.7972  -53.9697 H         1 UNK         0.0680 
     74 H74        32.9366  -42.8559  -54.4185 H         1 UNK         0.0650 
     75 H75        32.8626  -43.1113  -52.6904 H         1 UNK         0.0650 
     76 H76        30.7725  -43.7611  -51.5975 H         1 UNK         0.1397 
     77 H77        27.1665  -43.7060  -53.9222 H         1 UNK         0.1363 
     78 H78        30.9766  -43.4255  -55.8673 H         1 UNK         0.1355 
     79 H79        29.0070  -43.5791  -57.2043 H         1 UNK         0.0707 
     80 H80        27.6100  -44.3359  -56.4702 H         1 UNK         0.0707 
     81 H81        27.4815  -42.4960  -58.9079 H         1 UNK         0.1034 
     82 H82        26.6794  -40.9878  -58.6020 H         1 UNK         0.1034 
     83 H83        24.7646  -42.3773  -57.5023 H         1 UNK         0.0482 
     84 H84        23.0815  -42.8380  -60.9031 H         1 UNK         0.3460 
     85 H85        23.5270  -44.0595  -59.7370 H         1 UNK         0.3460 
     86 H86        25.0520  -44.5516  -57.3112 H         1 UNK         0.2989 
     87 H87        25.2142  -46.6574  -57.8718 H         1 UNK         0.0559 
     88 H88        26.4617  -47.4117  -60.5632 H         1 UNK         0.0848 
     89 H89        24.7484  -47.1747  -60.2573 H         1 UNK         0.0848 
     90 H90        25.6026  -48.4932  -59.4691 H         1 UNK         0.0848 
     91 H91        27.1020  -47.2569  -56.9576 H         1 UNK         0.3144 
     92 H92        30.3786  -48.0061  -58.1419 H         1 UNK         0.0727 
     93 H93        30.8445  -47.2545  -55.8155 H         1 UNK         0.0790 
     94 H94        29.2795  -46.4522  -55.7381 H         1 UNK         0.0790 
     95 H95        30.5113  -45.8787  -56.8547 H         1 UNK         0.0790 
     96 H96        28.9569  -48.9443  -55.8723 H         1 UNK         0.3215 
     97 H97        27.3389  -51.7410  -57.4078 H         1 UNK         0.0863 
     98 H98        29.5934  -51.5068  -55.3436 H         1 UNK         0.0808 
     99 H99        29.6387  -52.4838  -56.8024 H         1 UNK         0.0808 
    100 H100       28.4920  -52.8687  -55.5292 H         1 UNK         0.0808 
    101 H101       27.4566  -50.3685  -54.8042 H         1 UNK         0.3118 
    102 H102       24.3845  -48.7071  -55.2060 H         1 UNK         0.0546 
    103 H103       23.5872  -50.0275  -53.2607 H         1 UNK         0.0828 
    104 H104       24.7973  -51.2725  -53.5752 H         1 UNK         0.0828 
    105 H105       23.4986  -50.9901  -54.7253 H         1 UNK         0.0828 
    106 H106       26.0484  -49.2338  -52.9184 H         1 UNK         0.3005 
    107 H107       28.3247  -46.5606  -53.4519 H         1 UNK         0.1257 
    108 H108       26.0475  -46.8569  -51.4232 H         1 UNK         0.0775 
    109 H109       26.2577  -45.4863  -52.4772 H         1 UNK         0.0775 
    110 H110       27.0669  -43.3956  -51.4889 H         1 UNK         0.0840 
    111 H111       28.5333  -43.2095  -50.5684 H         1 UNK         0.0840 
    112 H112       28.2142  -48.2835  -51.2778 H         1 UNK         0.2987 
    113 H113       30.0404  -49.7330  -51.0590 H         1 UNK         0.0785 
    114 H114       29.3215  -52.1381  -51.1351 H         1 UNK         0.0798 
    115 H115       27.9332  -51.0725  -51.2534 H         1 UNK         0.0798 
    116 H116       28.5451  -51.8712  -52.6954 H         1 UNK         0.0798 
    117 H117       30.9205  -51.5266  -53.1948 H         1 UNK         0.3079 
    118 H118       33.2692  -51.5928  -53.5547 H         1 UNK         0.0794 
    119 H119       31.8579  -50.6711  -55.4444 H         1 UNK         0.0786 
    120 H120       33.5581  -50.6423  -55.8731 H         1 UNK         0.0786 
    121 H121       32.7462  -49.1581  -55.3775 H         1 UNK         0.0786 
    122 H122       34.4056  -49.0246  -52.8791 H         1 UNK         0.3032 
    123 H123       36.9141  -49.4486  -52.2391 H         1 UNK         0.1094 
    124 H124       38.2768  -50.1840  -54.8858 H         1 UNK         0.0794 
    125 H125       39.0727  -49.4772  -53.4803 H         1 UNK         0.0794 
    126 H126       38.3876  -51.0902  -53.3820 H         1 UNK         0.0794 
    127 H127       37.2033  -47.9677  -54.7757 H         1 UNK         0.3016 
@<TRIPOS>BOND
     1    1    2 1    
     2    1   67 1    
     3    1   68 1    
     4    1   69 1    
     5    2    3 2    
     6    2    4 am   BACKBONE|DICT|INTERRES
     7    4    5 1    
     8    4   70 1    
     9    5    6 1    
    10    5   65 1    
    11    5   71 1    
    12    6    7 1    
    13    6   72 1    
    14    6   73 1    
    15    7    8 1    
    16    8    9 1    
    17    8   74 1    
    18    8   75 1    
    19    9   10 ar   
    20    9   14 ar   
    21   10   11 ar   
    22   10   76 1    
    23   11   12 ar   
    24   11   48 1    
    25   12   13 ar   
    26   12   77 1    
    27   13   14 ar   
    28   13   15 1    
    29   14   78 1    
    30   15   16 1    
    31   15   79 1    
    32   15   80 1    
    33   16   17 1    
    34   17   18 1    
    35   17   81 1    
    36   17   82 1    
    37   18   19 1    
    38   18   22 1    
    39   18   83 1    
    40   19   20 am   BACKBONE|DICT|INTERRES
    41   19   21 2    
    42   20   84 1    
    43   20   85 1    
    44   22   23 am   BACKBONE|DICT|INTERRES
    45   22   86 1    
    46   23   24 2    
    47   23   25 1    
    48   25   26 1    
    49   25   27 1    
    50   25   87 1    
    51   26   88 1    
    52   26   89 1    
    53   26   90 1    
    54   27   28 am   BACKBONE|DICT|INTERRES
    55   27   91 1    
    56   28   29 2    
    57   28   30 1    
    58   30   31 1    
    59   30   32 1    
    60   30   92 1    
    61   31   93 1    
    62   31   94 1    
    63   31   95 1    
    64   32   33 am   BACKBONE|DICT|INTERRES
    65   32   96 1    
    66   33   34 2    
    67   33   35 1    
    68   35   36 1    
    69   35   37 1    
    70   35   97 1    
    71   36   98 1    
    72   36   99 1    
    73   36  100 1    
    74   37   38 am   BACKBONE|DICT|INTERRES
    75   37  101 1    
    76   38   39 2    
    77   38   40 1    
    78   40   41 1    
    79   40   42 1    
    80   40  102 1    
    81   41  103 1    
    82   41  104 1    
    83   41  105 1    
    84   42   43 am   BACKBONE|DICT|INTERRES
    85   42  106 1    
    86   43   44 2    
    87   43   45 1    
    88   45   46 1    
    89   45   49 1    
    90   45  107 1    
    91   46   47 1    
    92   46  108 1    
    93   46  109 1    
    94   47   48 1    
    95   48  110 1    
    96   48  111 1    
    97   49   50 am   BACKBONE|DICT|INTERRES
    98   49  112 1    
    99   50   51 2    
   100   50   52 1    
   101   52   53 1    
   102   52   54 1    
   103   52  113 1    
   104   53  114 1    
   105   53  115 1    
   106   53  116 1    
   107   54   55 am   BACKBONE|DICT|INTERRES
   108   54  117 1    
   109   55   56 2    
   110   55   57 1    
   111   57   58 1    
   112   57   59 1    
   113   57  118 1    
   114   58  119 1    
   115   58  120 1    
   116   58  121 1    
   117   59   60 am   BACKBONE|DICT|INTERRES
   118   59  122 1    
   119   60   61 2    
   120   60   62 1    
   121   62   63 1    
   122   62   64 1    
   123   62  123 1    
   124   63  124 1    
   125   63  125 1    
   126   63  126 1    
   127   64   65 am   BACKBONE|DICT|INTERRES
   128   64  127 1    
   129   65   66 2    
@<TRIPOS>SUBSTRUCTURE
     1 UNK         1 GROUP             0       ****    0 ROOT    
