@<TRIPOS>MOLECULE
3R134
127   129    1
SMALL
USER_CHARGES


@<TRIPOS>ATOM
      1 CA         32.5386  -50.4719  -57.1090 C.3       0 UNK        -0.1968 
      2 C          32.7356  -49.3830  -56.0661 C.2       0 UNK         0.4852 
      3 O          32.0676  -49.4020  -55.0331 O.2       0 UNK        -0.5359 
      4 N          33.6406  -48.4312  -56.3271 N.am      1 UNK        -0.4300 
      5 CA         33.9595  -47.2991  -55.4440 C.3       1 UNK         0.0863 
      6 C6         34.7262  -46.1863  -56.1981 C.3       11 UNK        -0.0953 
      7 S7         33.7926  -45.5133  -57.6109 S.3       11 UNK        -0.2369 
      8 C8         33.4314  -43.8209  -57.0509 C.3       11 UNK         0.0226 
      9 C9         32.1787  -43.7453  -56.1888 C.ar      11 UNK        -0.0699 
     10 C10        32.2596  -43.8419  -54.7956 C.ar      11 UNK        -0.0804 
     11 C11        31.1146  -43.6795  -54.0090 C.ar      11 UNK        -0.0871 
     12 C12        29.8866  -43.4215  -54.6264 C.ar      11 UNK        -0.1008 
     13 C13        29.7842  -43.3369  -56.0213 C.ar      11 UNK        -0.0735 
     14 C14        30.9387  -43.5098  -56.7906 C.ar      11 UNK        -0.0945 
     15 C15        28.4759  -43.0114  -56.7498 C.3       11 UNK         0.0169 
     16 S16        26.9715  -42.9115  -55.7164 S.3       11 UNK        -0.2669 
     17 C17        26.6838  -44.6699  -55.2996 C.3       11 UNK        -0.0850 
     18 CA         25.2456  -45.1629  -55.6134 C.3       10 UNK         0.0855 
     19 C          24.2158  -44.5855  -54.5948 C.2       10 UNK         0.5543 
     20 N          23.3025  -43.7083  -54.9943 N.am      10 UNK        -0.7343 
     21 O          24.2436  -44.9487  -53.4215 O.2       10 UNK        -0.5027 
     22 N          24.9109  -44.9881  -57.0377 N.am      10 UNK        -0.4495 
     23 C          23.8371  -45.4996  -57.6559 C.2       10 UNK         0.4903 
     24 O          23.0125  -46.2344  -57.1118 O.2       10 UNK        -0.4860 
     25 CA         23.6399  -45.1176  -59.1335 C.3       9 UNK         0.0227 
     26 CB         22.9022  -43.7732  -59.2475 C.3       9 UNK        -0.1964 
     27 N          24.9041  -45.0463  -59.8696 N.am      9 UNK        -0.4231 
     28 C          25.6026  -46.1160  -60.2735 C.2       9 UNK         0.5014 
     29 O          25.2014  -47.2761  -60.1547 O.2       9 UNK        -0.5270 
     30 CA         26.9719  -45.8639  -60.9418 C.3       8 UNK         0.0284 
     31 CB         27.4477  -44.3923  -60.8907 C.3       8 UNK        -0.1977 
     32 N          28.0092  -46.7573  -60.4090 N.am      8 UNK        -0.4342 
     33 C          28.3809  -46.8701  -59.1258 C.2       8 UNK         0.5039 
     34 O          27.9234  -46.1858  -58.2095 O.2       8 UNK        -0.5547 
     35 CA         29.4892  -47.8903  -58.8221 C.3       7 UNK         0.0281 
     36 CB         30.8656  -47.2117  -58.8951 C.3       7 UNK        -0.1963 
     37 N          29.3216  -48.4755  -57.4920 N.am      7 UNK        -0.4444 
     38 C          28.3622  -49.3462  -57.1511 C.2       7 UNK         0.5104 
     39 O          27.5585  -49.8233  -57.9534 O.2       7 UNK        -0.5100 
     40 CA         28.3003  -49.7887  -55.6775 C.3       6 UNK         0.0396 
     41 CB         28.6056  -51.2910  -55.5513 C.3       6 UNK        -0.1801 
     42 N          29.2420  -49.0583  -54.8283 N.am      6 UNK        -0.4747 
     43 C          28.9685  -47.9600  -54.1119 C.2       6 UNK         0.5012 
     44 O          27.8655  -47.4147  -54.0800 O.2       6 UNK        -0.5003 
     45 CA         30.1499  -47.4217  -53.2766 C.3       5 UNK         0.0782 
     46 C46        29.8088  -46.2012  -52.3840 C.3       11 UNK        -0.0868 
     47 S47        31.3471  -45.3999  -51.8105 S.3       11 UNK        -0.2515 
     48 C48        31.2049  -43.7141  -52.4874 C.3       11 UNK         0.0199 
     49 N          30.7998  -48.5150  -52.5383 N.am      5 UNK        -0.4607 
     50 C          30.2348  -49.3026  -51.6107 C.2       4 UNK         0.5031 
     51 O          29.0878  -49.1676  -51.1841 O.2       4 UNK        -0.5119 
     52 CA         31.1008  -50.4537  -51.0758 C.3       4 UNK         0.0263 
     53 CB         31.0911  -51.6348  -52.0608 C.3       4 UNK        -0.1967 
     54 N          32.4831  -50.0533  -50.8103 N.am      4 UNK        -0.4237 
     55 C          32.8716  -49.1767  -49.8761 C.2       3 UNK         0.4908 
     56 O          32.0953  -48.6228  -49.0970 O.2       3 UNK        -0.5102 
     57 CA         34.3749  -48.8558  -49.7748 C.3       3 UNK         0.0241 
     58 CB         35.0668  -49.7807  -48.7539 C.3       3 UNK        -0.1971 
     59 N          35.1039  -48.8295  -51.0528 N.am      3 UNK        -0.4139 
     60 C          35.3788  -49.8323  -51.8979 C.2       2 UNK         0.5016 
     61 O          34.9738  -50.9873  -51.7527 O.2       2 UNK        -0.5319 
     62 CA         36.2060  -49.4615  -53.1415 C.3       2 UNK         0.0286 
     63 CB         36.9811  -50.6691  -53.7001 C.3       2 UNK        -0.1963 
     64 N          35.3677  -48.9087  -54.2064 N.am      2 UNK        -0.4790 
     65 C          34.7618  -47.7122  -54.1903 C.2       1 UNK         0.5024 
     66 O          34.8457  -46.9252  -53.2467 O.2       1 UNK        -0.4888 
     67 H67        31.5198  -50.4447  -57.4935 H         1 UNK         0.0892 
     68 H68        33.2218  -50.3597  -57.9506 H         1 UNK         0.0892 
     69 H69        32.7076  -51.4512  -56.6624 H         1 UNK         0.0892 
     70 H70        34.1470  -48.4512  -57.2012 H         1 UNK         0.3107 
     71 H71        33.0189  -46.8754  -55.0874 H         1 UNK         0.0773 
     72 H72        35.6758  -46.5680  -56.5780 H         1 UNK         0.0680 
     73 H73        34.9844  -45.3702  -55.5208 H         1 UNK         0.0680 
     74 H74        34.2891  -43.4061  -56.5195 H         1 UNK         0.0650 
     75 H75        33.3022  -43.1924  -57.9334 H         1 UNK         0.0650 
     76 H76        33.2154  -44.0167  -54.3205 H         1 UNK         0.1397 
     77 H77        29.0168  -43.2687  -54.0049 H         1 UNK         0.1363 
     78 H78        30.8773  -43.4297  -57.8676 H         1 UNK         0.1355 
     79 H79        28.3114  -43.7400  -57.5424 H         1 UNK         0.0707 
     80 H80        28.5983  -42.0479  -57.2462 H         1 UNK         0.0707 
     81 H81        27.4012  -45.2912  -55.8367 H         1 UNK         0.1034 
     82 H82        26.9191  -44.8207  -54.2443 H         1 UNK         0.1034 
     83 H83        25.2436  -46.2408  -55.4395 H         1 UNK         0.0482 
     84 H84        23.2807  -43.3996  -55.9522 H         1 UNK         0.3460 
     85 H85        22.6396  -43.3446  -54.3283 H         1 UNK         0.3460 
     86 H86        25.5518  -44.4141  -57.5640 H         1 UNK         0.2989 
     87 H87        23.0127  -45.8835  -59.5953 H         1 UNK         0.0559 
     88 H88        23.4803  -42.9525  -58.8208 H         1 UNK         0.0848 
     89 H89        21.9474  -43.8073  -58.7207 H         1 UNK         0.0848 
     90 H90        22.6861  -43.5264  -60.2872 H         1 UNK         0.0848 
     91 H91        25.2988  -44.1299  -60.0235 H         1 UNK         0.3144 
     92 H92        26.8468  -46.1324  -61.9918 H         1 UNK         0.0727 
     93 H93        28.4191  -44.2809  -61.3727 H         1 UNK         0.0790 
     94 H94        27.5482  -44.0273  -59.8682 H         1 UNK         0.0790 
     95 H95        26.7590  -43.7313  -61.4184 H         1 UNK         0.0790 
     96 H96        28.4287  -47.3824  -61.0833 H         1 UNK         0.3215 
     97 H97        29.4487  -48.6940  -59.5605 H         1 UNK         0.0863 
     98 H98        31.6733  -47.9216  -58.7199 H         1 UNK         0.0808 
     99 H99        30.9544  -46.4111  -58.1592 H         1 UNK         0.0808 
    100 H100       31.0345  -46.7683  -59.8772 H         1 UNK         0.0808 
    101 H101       29.8925  -48.0973  -56.7525 H         1 UNK         0.3118 
    102 H102       27.2807  -49.6162  -55.3269 H         1 UNK         0.0546 
    103 H103       29.6135  -51.5288  -55.8935 H         1 UNK         0.0828 
    104 H104       27.9097  -51.8849  -56.1454 H         1 UNK         0.0828 
    105 H105       28.5150  -51.6271  -54.5183 H         1 UNK         0.0828 
    106 H106       30.1987  -49.4074  -54.8025 H         1 UNK         0.3005 
    107 H107       30.8721  -47.0798  -54.0192 H         1 UNK         0.1257 
    108 H108       29.2160  -46.4985  -51.5181 H         1 UNK         0.0775 
    109 H109       29.2010  -45.4767  -52.9251 H         1 UNK         0.0775 
    110 H110       30.3386  -43.2254  -52.0386 H         1 UNK         0.0840 
    111 H111       32.0726  -43.1360  -52.1665 H         1 UNK         0.0840 
    112 H112       31.7237  -48.7618  -52.8666 H         1 UNK         0.2987 
    113 H113       30.6636  -50.7892  -50.1330 H         1 UNK         0.0785 
    114 H114       31.6298  -52.4922  -51.6570 H         1 UNK         0.0798 
    115 H115       31.5496  -51.3709  -53.0151 H         1 UNK         0.0798 
    116 H116       30.0712  -51.9614  -52.2686 H         1 UNK         0.0798 
    117 H117       33.2166  -50.5022  -51.3540 H         1 UNK         0.3079 
    118 H118       34.4406  -47.8377  -49.3872 H         1 UNK         0.0794 
    119 H119       34.5814  -49.7156  -47.7792 H         1 UNK         0.0786 
    120 H120       36.1121  -49.5051  -48.6137 H         1 UNK         0.0786 
    121 H121       35.0335  -50.8263  -49.0615 H         1 UNK         0.0786 
    122 H122       35.3722  -47.9025  -51.3641 H         1 UNK         0.3032 
    123 H123       36.9375  -48.7057  -52.8456 H         1 UNK         0.1094 
    124 H124       37.6334  -50.3761  -54.5230 H         1 UNK         0.0794 
    125 H125       37.6129  -51.1157  -52.9311 H         1 UNK         0.0794 
    126 H126       36.3113  -51.4495  -54.0643 H         1 UNK         0.0794 
    127 H127       35.2238  -49.4961  -55.0146 H         1 UNK         0.3016 
@<TRIPOS>BOND
     1    1    2 1    
     2    1   67 1    
     3    1   68 1    
     4    1   69 1    
     5    2    3 2    
     6    2    4 am   BACKBONE|DICT|INTERRES
     7    4    5 1    
     8    4   70 1    
     9    5    6 1    
    10    5   65 1    
    11    5   71 1    
    12    6    7 1    
    13    6   72 1    
    14    6   73 1    
    15    7    8 1    
    16    8    9 1    
    17    8   74 1    
    18    8   75 1    
    19    9   10 ar   
    20    9   14 ar   
    21   10   11 ar   
    22   10   76 1    
    23   11   12 ar   
    24   11   48 1    
    25   12   13 ar   
    26   12   77 1    
    27   13   14 ar   
    28   13   15 1    
    29   14   78 1    
    30   15   16 1    
    31   15   79 1    
    32   15   80 1    
    33   16   17 1    
    34   17   18 1    
    35   17   81 1    
    36   17   82 1    
    37   18   19 1    
    38   18   22 1    
    39   18   83 1    
    40   19   20 am   BACKBONE|DICT|INTERRES
    41   19   21 2    
    42   20   84 1    
    43   20   85 1    
    44   22   23 am   BACKBONE|DICT|INTERRES
    45   22   86 1    
    46   23   24 2    
    47   23   25 1    
    48   25   26 1    
    49   25   27 1    
    50   25   87 1    
    51   26   88 1    
    52   26   89 1    
    53   26   90 1    
    54   27   28 am   BACKBONE|DICT|INTERRES
    55   27   91 1    
    56   28   29 2    
    57   28   30 1    
    58   30   31 1    
    59   30   32 1    
    60   30   92 1    
    61   31   93 1    
    62   31   94 1    
    63   31   95 1    
    64   32   33 am   BACKBONE|DICT|INTERRES
    65   32   96 1    
    66   33   34 2    
    67   33   35 1    
    68   35   36 1    
    69   35   37 1    
    70   35   97 1    
    71   36   98 1    
    72   36   99 1    
    73   36  100 1    
    74   37   38 am   BACKBONE|DICT|INTERRES
    75   37  101 1    
    76   38   39 2    
    77   38   40 1    
    78   40   41 1    
    79   40   42 1    
    80   40  102 1    
    81   41  103 1    
    82   41  104 1    
    83   41  105 1    
    84   42   43 am   BACKBONE|DICT|INTERRES
    85   42  106 1    
    86   43   44 2    
    87   43   45 1    
    88   45   46 1    
    89   45   49 1    
    90   45  107 1    
    91   46   47 1    
    92   46  108 1    
    93   46  109 1    
    94   47   48 1    
    95   48  110 1    
    96   48  111 1    
    97   49   50 am   BACKBONE|DICT|INTERRES
    98   49  112 1    
    99   50   51 2    
   100   50   52 1    
   101   52   53 1    
   102   52   54 1    
   103   52  113 1    
   104   53  114 1    
   105   53  115 1    
   106   53  116 1    
   107   54   55 am   BACKBONE|DICT|INTERRES
   108   54  117 1    
   109   55   56 2    
   110   55   57 1    
   111   57   58 1    
   112   57   59 1    
   113   57  118 1    
   114   58  119 1    
   115   58  120 1    
   116   58  121 1    
   117   59   60 am   BACKBONE|DICT|INTERRES
   118   59  122 1    
   119   60   61 2    
   120   60   62 1    
   121   62   63 1    
   122   62   64 1    
   123   62  123 1    
   124   63  124 1    
   125   63  125 1    
   126   63  126 1    
   127   64   65 am   BACKBONE|DICT|INTERRES
   128   64  127 1    
   129   65   66 2    
@<TRIPOS>SUBSTRUCTURE
     1 UNK         1 GROUP             0       ****    0 ROOT    
