@<TRIPOS>MOLECULE
3R134
127   129    1
SMALL
USER_CHARGES


@<TRIPOS>ATOM
      1 CA         33.2295  -47.6740  -59.9021 C.3       0 UNK        -0.1968 
      2 C          33.9267  -47.5561  -58.5543 C.2       0 UNK         0.4852 
      3 O          35.1549  -47.6191  -58.4965 O.2       0 UNK        -0.5359 
      4 N          33.1451  -47.4031  -57.4746 N.am      1 UNK        -0.4300 
      5 CA         33.5828  -47.2248  -56.0793 C.3       1 UNK         0.0863 
      6 C6         34.3743  -45.9066  -55.8488 C.3       11 UNK        -0.0953 
      7 S7         33.2789  -44.4584  -56.0277 S.3       11 UNK        -0.2369 
      8 C8         32.9630  -44.0796  -54.2682 C.3       11 UNK         0.0226 
      9 C9         31.6104  -43.4469  -53.9377 C.ar      11 UNK        -0.0699 
     10 C10        31.3694  -43.0961  -52.6058 C.ar      11 UNK        -0.0804 
     11 C11        30.1292  -42.5892  -52.2082 C.ar      11 UNK        -0.0871 
     12 C12        29.1346  -42.3826  -53.1653 C.ar      11 UNK        -0.1008 
     13 C13        29.3542  -42.7289  -54.5011 C.ar      11 UNK        -0.0735 
     14 C14        30.5913  -43.2590  -54.8827 C.ar      11 UNK        -0.0945 
     15 C15        28.2372  -42.5613  -55.5197 C.3       11 UNK         0.0169 
     16 S16        26.8283  -43.6396  -55.1163 S.3       11 UNK        -0.2669 
     17 C17        25.7394  -43.3746  -56.5545 C.3       11 UNK        -0.0850 
     18 CA         25.5730  -44.6681  -57.4023 C.3       10 UNK         0.0855 
     19 C          24.4529  -44.5482  -58.4825 C.2       10 UNK         0.5543 
     20 N          24.5618  -45.2053  -59.6322 N.am      10 UNK        -0.7343 
     21 O          23.4489  -43.8736  -58.2665 O.2       10 UNK        -0.5027 
     22 N          26.8492  -45.2042  -57.9041 N.am      10 UNK        -0.4495 
     23 C          27.6579  -44.6182  -58.8004 C.2       10 UNK         0.4903 
     24 O          27.4969  -43.4773  -59.2337 O.2       10 UNK        -0.4860 
     25 CA         28.8356  -45.4560  -59.3389 C.3       9 UNK         0.0227 
     26 CB         30.1277  -45.1005  -58.5828 C.3       9 UNK        -0.1964 
     27 N          28.6156  -46.9049  -59.2666 N.am      9 UNK        -0.4231 
     28 C          27.5896  -47.5788  -59.8096 C.2       9 UNK         0.5014 
     29 O          26.7631  -47.0707  -60.5689 O.2       9 UNK        -0.5270 
     30 CA         27.4160  -49.0532  -59.3910 C.3       8 UNK         0.0284 
     31 CB         27.8442  -49.9866  -60.5354 C.3       8 UNK        -0.1977 
     32 N          28.1278  -49.4404  -58.1634 N.am      8 UNK        -0.4342 
     33 C          27.9708  -48.8941  -56.9478 C.2       8 UNK         0.5039 
     34 O          27.2063  -47.9551  -56.7100 O.2       8 UNK        -0.5547 
     35 CA         28.9097  -49.4382  -55.8567 C.3       7 UNK         0.0281 
     36 CB         30.3386  -48.9238  -56.0916 C.3       7 UNK        -0.1963 
     37 N          28.4971  -49.0617  -54.5032 N.am      7 UNK        -0.4444 
     38 C          27.4406  -49.5768  -53.8577 C.2       7 UNK         0.5104 
     39 O          26.7096  -50.4430  -54.3414 O.2       7 UNK        -0.5100 
     40 CA         27.1577  -49.0848  -52.4238 C.3       6 UNK         0.0396 
     41 CB         27.2020  -50.2569  -51.4282 C.3       6 UNK        -0.1801 
     42 N          28.0971  -48.0511  -51.9790 N.am      6 UNK        -0.4747 
     43 C          27.9037  -46.7298  -52.1165 C.2       6 UNK         0.5012 
     44 O          26.8678  -46.2467  -52.5721 O.2       6 UNK        -0.5003 
     45 CA         29.0410  -45.7804  -51.6725 C.3       5 UNK         0.0782 
     46 C46        28.5879  -44.8864  -50.4832 C.3       11 UNK        -0.0868 
     47 S47        29.9203  -43.8634  -49.7539 S.3       11 UNK        -0.2515 
     48 C48        29.8426  -42.3282  -50.7371 C.3       11 UNK         0.0199 
     49 N          30.3084  -46.4698  -51.4029 N.am      5 UNK        -0.4607 
     50 C          31.0917  -47.0241  -52.3345 C.2       4 UNK         0.5031 
     51 O          30.7947  -47.0705  -53.5285 O.2       4 UNK        -0.5119 
     52 CA         32.4152  -47.6609  -51.8670 C.3       4 UNK         0.0263 
     53 CB         32.6367  -47.6283  -50.3372 C.3       4 UNK        -0.1967 
     54 N          32.5590  -49.0268  -52.3810 N.am      4 UNK        -0.4237 
     55 C          31.7042  -50.0479  -52.2021 C.2       3 UNK         0.4908 
     56 O          30.6886  -49.9679  -51.5089 O.2       3 UNK        -0.5102 
     57 CA         32.0166  -51.3651  -52.9395 C.3       3 UNK         0.0241 
     58 CB         30.7337  -52.1328  -53.3121 C.3       3 UNK        -0.1971 
     59 N          32.7925  -51.1159  -54.1573 N.am      3 UNK        -0.4139 
     60 C          34.0807  -51.4273  -54.3459 C.2       2 UNK         0.5016 
     61 O          34.7678  -52.0525  -53.5380 O.2       2 UNK        -0.5319 
     62 CA         34.7197  -50.9153  -55.6508 C.3       2 UNK         0.0286 
     63 CB         34.5810  -51.9636  -56.7664 C.3       2 UNK        -0.1963 
     64 N          34.1664  -49.6355  -56.1171 N.am      2 UNK        -0.4790 
     65 C          34.2698  -48.4673  -55.4625 C.2       1 UNK         0.5024 
     66 O          34.8223  -48.3695  -54.3659 O.2       1 UNK        -0.4888 
     67 H67        33.5896  -48.5533  -60.4355 H         1 UNK         0.0892 
     68 H68        32.1482  -47.7630  -59.8002 H         1 UNK         0.0892 
     69 H69        33.4430  -46.7959  -60.5110 H         1 UNK         0.0892 
     70 H70        32.1480  -47.3450  -57.6100 H         1 UNK         0.3107 
     71 H71        32.6625  -47.1398  -55.5002 H         1 UNK         0.0773 
     72 H72        35.2002  -45.8136  -56.5546 H         1 UNK         0.0680 
     73 H73        34.8338  -45.8733  -54.8597 H         1 UNK         0.0680 
     74 H74        33.7634  -43.4306  -53.9100 H         1 UNK         0.0650 
     75 H75        33.0317  -45.0033  -53.6935 H         1 UNK         0.0650 
     76 H76        32.1352  -43.2644  -51.8605 H         1 UNK         0.1397 
     77 H77        28.1687  -41.9971  -52.8677 H         1 UNK         0.1363 
     78 H78        30.7421  -43.5391  -55.9145 H         1 UNK         0.1355 
     79 H79        27.9087  -41.5212  -55.5326 H         1 UNK         0.0707 
     80 H80        28.5926  -42.7924  -56.5250 H         1 UNK         0.0707 
     81 H81        24.7738  -43.0466  -56.1658 H         1 UNK         0.1034 
     82 H82        26.1080  -42.5509  -57.1674 H         1 UNK         0.1034 
     83 H83        25.2005  -45.4396  -56.7273 H         1 UNK         0.0482 
     84 H84        25.3748  -45.7762  -59.8356 H         1 UNK         0.3460 
     85 H85        23.8244  -45.1259  -60.3140 H         1 UNK         0.3460 
     86 H86        27.0670  -46.1447  -57.5870 H         1 UNK         0.2989 
     87 H87        28.9671  -45.1961  -60.3911 H         1 UNK         0.0559 
     88 H88        30.3127  -44.0255  -58.6107 H         1 UNK         0.0848 
     89 H89        30.9973  -45.5822  -59.0285 H         1 UNK         0.0848 
     90 H90        30.0759  -45.3914  -57.5326 H         1 UNK         0.0848 
     91 H91        29.2213  -47.4215  -58.6494 H         1 UNK         0.3144 
     92 H92        26.3504  -49.2046  -59.2064 H         1 UNK         0.0727 
     93 H93        27.6270  -51.0291  -60.3019 H         1 UNK         0.0790 
     94 H94        28.9108  -49.9029  -60.7480 H         1 UNK         0.0790 
     95 H95        27.3096  -49.7472  -61.4560 H         1 UNK         0.0790 
     96 H96        28.7850  -50.2015  -58.2615 H         1 UNK         0.3215 
     97 H97        28.9107  -50.5287  -55.9184 H         1 UNK         0.0863 
     98 H98        31.0062  -49.2347  -55.2903 H         1 UNK         0.0808 
     99 H99        30.3615  -47.8338  -56.1325 H         1 UNK         0.0808 
    100 H100       30.7517  -49.3042  -57.0263 H         1 UNK         0.0808 
    101 H101       29.0309  -48.3284  -54.0523 H         1 UNK         0.3118 
    102 H102       26.1422  -48.6837  -52.4169 H         1 UNK         0.0546 
    103 H103       28.1724  -50.7535  -51.4292 H         1 UNK         0.0828 
    104 H104       26.4536  -51.0102  -51.6775 H         1 UNK         0.0828 
    105 H105       26.9960  -49.9233  -50.4112 H         1 UNK         0.0828 
    106 H106       28.9837  -48.3796  -51.6134 H         1 UNK         0.3005 
    107 H107       29.2146  -45.1327  -52.5334 H         1 UNK         0.1257 
    108 H108       28.1881  -45.5074  -49.6792 H         1 UNK         0.0775 
    109 H109       27.7700  -44.2322  -50.7913 H         1 UNK         0.0775 
    110 H110       28.8644  -41.8641  -50.6014 H         1 UNK         0.0840 
    111 H111       30.5761  -41.6198  -50.3495 H         1 UNK         0.0840 
    112 H112       30.6139  -46.4724  -50.4409 H         1 UNK         0.2987 
    113 H113       33.2112  -47.0752  -52.3285 H         1 UNK         0.0785 
    114 H114       33.5978  -48.0708  -50.0749 H         1 UNK         0.0798 
    115 H115       31.8658  -48.1786  -49.7962 H         1 UNK         0.0798 
    116 H116       32.6479  -46.6053  -49.9585 H         1 UNK         0.0798 
    117 H117       33.3640  -49.1739  -52.9780 H         1 UNK         0.3079 
    118 H118       32.5897  -51.9829  -52.2452 H         1 UNK         0.0794 
    119 H119       30.1662  -52.4065  -52.4216 H         1 UNK         0.0786 
    120 H120       30.9651  -53.0573  -53.8413 H         1 UNK         0.0786 
    121 H121       30.0766  -51.5384  -53.9464 H         1 UNK         0.0786 
    122 H122       32.3264  -50.6015  -54.8893 H         1 UNK         0.3032 
    123 H123       35.7834  -50.7649  -55.4516 H         1 UNK         0.1094 
    124 H124       33.5375  -52.1409  -57.0298 H         1 UNK         0.0794 
    125 H125       35.1084  -51.6545  -57.6692 H         1 UNK         0.0794 
    126 H126       35.0059  -52.9200  -56.4577 H         1 UNK         0.0794 
    127 H127       33.7180  -49.6344  -57.0216 H         1 UNK         0.3016 
@<TRIPOS>BOND
     1    1    2 1    
     2    1   67 1    
     3    1   68 1    
     4    1   69 1    
     5    2    3 2    
     6    2    4 am   BACKBONE|DICT|INTERRES
     7    4    5 1    
     8    4   70 1    
     9    5    6 1    
    10    5   65 1    
    11    5   71 1    
    12    6    7 1    
    13    6   72 1    
    14    6   73 1    
    15    7    8 1    
    16    8    9 1    
    17    8   74 1    
    18    8   75 1    
    19    9   10 ar   
    20    9   14 ar   
    21   10   11 ar   
    22   10   76 1    
    23   11   12 ar   
    24   11   48 1    
    25   12   13 ar   
    26   12   77 1    
    27   13   14 ar   
    28   13   15 1    
    29   14   78 1    
    30   15   16 1    
    31   15   79 1    
    32   15   80 1    
    33   16   17 1    
    34   17   18 1    
    35   17   81 1    
    36   17   82 1    
    37   18   19 1    
    38   18   22 1    
    39   18   83 1    
    40   19   20 am   BACKBONE|DICT|INTERRES
    41   19   21 2    
    42   20   84 1    
    43   20   85 1    
    44   22   23 am   BACKBONE|DICT|INTERRES
    45   22   86 1    
    46   23   24 2    
    47   23   25 1    
    48   25   26 1    
    49   25   27 1    
    50   25   87 1    
    51   26   88 1    
    52   26   89 1    
    53   26   90 1    
    54   27   28 am   BACKBONE|DICT|INTERRES
    55   27   91 1    
    56   28   29 2    
    57   28   30 1    
    58   30   31 1    
    59   30   32 1    
    60   30   92 1    
    61   31   93 1    
    62   31   94 1    
    63   31   95 1    
    64   32   33 am   BACKBONE|DICT|INTERRES
    65   32   96 1    
    66   33   34 2    
    67   33   35 1    
    68   35   36 1    
    69   35   37 1    
    70   35   97 1    
    71   36   98 1    
    72   36   99 1    
    73   36  100 1    
    74   37   38 am   BACKBONE|DICT|INTERRES
    75   37  101 1    
    76   38   39 2    
    77   38   40 1    
    78   40   41 1    
    79   40   42 1    
    80   40  102 1    
    81   41  103 1    
    82   41  104 1    
    83   41  105 1    
    84   42   43 am   BACKBONE|DICT|INTERRES
    85   42  106 1    
    86   43   44 2    
    87   43   45 1    
    88   45   46 1    
    89   45   49 1    
    90   45  107 1    
    91   46   47 1    
    92   46  108 1    
    93   46  109 1    
    94   47   48 1    
    95   48  110 1    
    96   48  111 1    
    97   49   50 am   BACKBONE|DICT|INTERRES
    98   49  112 1    
    99   50   51 2    
   100   50   52 1    
   101   52   53 1    
   102   52   54 1    
   103   52  113 1    
   104   53  114 1    
   105   53  115 1    
   106   53  116 1    
   107   54   55 am   BACKBONE|DICT|INTERRES
   108   54  117 1    
   109   55   56 2    
   110   55   57 1    
   111   57   58 1    
   112   57   59 1    
   113   57  118 1    
   114   58  119 1    
   115   58  120 1    
   116   58  121 1    
   117   59   60 am   BACKBONE|DICT|INTERRES
   118   59  122 1    
   119   60   61 2    
   120   60   62 1    
   121   62   63 1    
   122   62   64 1    
   123   62  123 1    
   124   63  124 1    
   125   63  125 1    
   126   63  126 1    
   127   64   65 am   BACKBONE|DICT|INTERRES
   128   64  127 1    
   129   65   66 2    
@<TRIPOS>SUBSTRUCTURE
     1 UNK         1 GROUP             0       ****    0 ROOT    
