@<TRIPOS>MOLECULE
3R134
127   129    1
SMALL
USER_CHARGES


@<TRIPOS>ATOM
      1 CA         37.9110  -42.3887  -53.8240 C.3       0 UNK        -0.1968 
      2 C          37.3693  -43.6932  -54.3906 C.2       0 UNK         0.4852 
      3 O          38.1103  -44.4303  -55.0437 O.2       0 UNK        -0.5359 
      4 N          36.0828  -43.9774  -54.1528 N.am      1 UNK        -0.4300 
      5 CA         35.4056  -45.2078  -54.5748 C.3       1 UNK         0.0863 
      6 C6         33.8624  -45.0726  -54.5165 C.3       11 UNK        -0.0953 
      7 S7         33.2201  -43.7390  -55.5835 S.3       11 UNK        -0.2369 
      8 C8         32.5172  -42.5793  -54.3667 C.3       11 UNK         0.0226 
      9 C9         31.1923  -43.0744  -53.8017 C.ar      11 UNK        -0.0699 
     10 C10        31.1516  -43.7525  -52.5810 C.ar      11 UNK        -0.0804 
     11 C11        29.9371  -44.2046  -52.0594 C.ar      11 UNK        -0.0871 
     12 C12        28.7512  -43.9523  -52.7539 C.ar      11 UNK        -0.1008 
     13 C13        28.7761  -43.2889  -53.9868 C.ar      11 UNK        -0.0735 
     14 C14        30.0012  -42.8440  -54.4962 C.ar      11 UNK        -0.0945 
     15 C15        27.4984  -43.0267  -54.7796 C.3       11 UNK         0.0169 
     16 S16        26.3219  -44.4220  -54.7471 S.3       11 UNK        -0.2669 
     17 C17        25.3935  -44.1573  -56.2988 C.3       11 UNK        -0.0850 
     18 CA         25.5282  -45.3487  -57.2935 C.3       10 UNK         0.0855 
     19 C          24.7150  -45.1595  -58.6058 C.2       10 UNK         0.5543 
     20 N          24.8362  -46.0759  -59.5571 N.am      10 UNK        -0.7343 
     21 O          23.9684  -44.1963  -58.7657 O.2       10 UNK        -0.5027 
     22 N          26.9182  -45.7644  -57.5409 N.am      10 UNK        -0.4495 
     23 C          27.8922  -45.0147  -58.0737 C.2       10 UNK         0.4903 
     24 O          27.7551  -43.8426  -58.4245 O.2       10 UNK        -0.4860 
     25 CA         29.2638  -45.6883  -58.2353 C.3       9 UNK         0.0227 
     26 CB         30.1312  -45.4375  -56.9919 C.3       9 UNK        -0.1964 
     27 N          29.1360  -47.1294  -58.4744 N.am      9 UNK        -0.4231 
     28 C          28.9787  -47.6647  -59.6944 C.2       9 UNK         0.5014 
     29 O          29.0131  -47.0097  -60.7374 O.2       9 UNK        -0.5270 
     30 CA         28.7311  -49.1825  -59.7879 C.3       8 UNK         0.0284 
     31 CB         30.0530  -49.9407  -59.9941 C.3       8 UNK        -0.1977 
     32 N          28.0075  -49.7641  -58.6532 N.am      8 UNK        -0.4342 
     33 C          26.7669  -49.4293  -58.2745 C.2       8 UNK         0.5039 
     34 O          26.1137  -48.5281  -58.8023 O.2       8 UNK        -0.5547 
     35 CA         26.1444  -50.2032  -57.1053 C.3       7 UNK         0.0281 
     36 CB         26.9877  -51.3909  -56.5951 C.3       7 UNK        -0.1963 
     37 N          25.9351  -49.2598  -56.0142 N.am      7 UNK        -0.4444 
     38 C          24.7829  -49.0499  -55.3661 C.2       7 UNK         0.5104 
     39 O          23.7385  -49.6517  -55.6213 O.2       7 UNK        -0.5100 
     40 CA         24.7820  -47.9744  -54.2561 C.3       6 UNK         0.0396 
     41 CB         23.9232  -48.3866  -53.0419 C.3       6 UNK        -0.1801 
     42 N          26.1219  -47.5398  -53.8332 N.am      6 UNK        -0.4747 
     43 C          27.0661  -48.2869  -53.2430 C.2       6 UNK         0.5012 
     44 O          26.9116  -49.4661  -52.9182 O.2       6 UNK        -0.5003 
     45 CA         28.4303  -47.6141  -52.9988 C.3       5 UNK         0.0782 
     46 C46        28.6461  -47.4099  -51.4764 C.3       11 UNK        -0.0868 
     47 S47        30.2840  -46.7385  -51.0303 S.3       11 UNK        -0.2515 
     48 C48        29.9199  -44.9763  -50.7505 C.3       11 UNK         0.0199 
     49 N          29.5053  -48.3936  -53.6183 N.am      5 UNK        -0.4607 
     50 C          29.6175  -48.7000  -54.9194 C.2       4 UNK         0.5031 
     51 O          28.8141  -48.3369  -55.7845 O.2       4 UNK        -0.5119 
     52 CA         30.8350  -49.5406  -55.3425 C.3       4 UNK         0.0263 
     53 CB         31.6963  -48.7772  -56.3622 C.3       4 UNK        -0.1967 
     54 N          31.6920  -49.8871  -54.2090 N.am      4 UNK        -0.4237 
     55 C          31.8741  -51.1019  -53.6822 C.2       3 UNK         0.4908 
     56 O          31.2817  -52.1108  -54.0684 O.2       3 UNK        -0.5102 
     57 CA         32.9219  -51.1948  -52.5477 C.3       3 UNK         0.0241 
     58 CB         33.1481  -52.6407  -52.0666 C.3       3 UNK        -0.1971 
     59 N          34.2178  -50.6111  -52.9265 N.am      3 UNK        -0.4139 
     60 C          34.4744  -49.3014  -53.0546 C.2       2 UNK         0.5016 
     61 O          33.6303  -48.4352  -52.8074 O.2       2 UNK        -0.5319 
     62 CA         35.8618  -48.8912  -53.5942 C.3       2 UNK         0.0286 
     63 CB         36.4695  -49.9338  -54.5545 C.3       2 UNK        -0.1963 
     64 N          35.7601  -47.6100  -54.2989 N.am      2 UNK        -0.4790 
     65 C          35.8533  -46.4085  -53.7155 C.2       1 UNK         0.5024 
     66 O          36.2139  -46.2369  -52.5472 O.2       1 UNK        -0.4888 
     67 H67        38.2885  -41.7582  -54.6286 H         1 UNK         0.0892 
     68 H68        37.1466  -41.8288  -53.2855 H         1 UNK         0.0892 
     69 H69        38.7310  -42.5911  -53.1355 H         1 UNK         0.0892 
     70 H70        35.5302  -43.3469  -53.5918 H         1 UNK         0.3107 
     71 H71        35.6921  -45.4080  -55.6099 H         1 UNK         0.0773 
     72 H72        33.3841  -45.9986  -54.8407 H         1 UNK         0.0680 
     73 H73        33.5379  -44.9185  -53.4878 H         1 UNK         0.0680 
     74 H74        32.3656  -41.6148  -54.8535 H         1 UNK         0.0650 
     75 H75        33.2373  -42.4036  -53.5663 H         1 UNK         0.0650 
     76 H76        32.0661  -43.9382  -52.0352 H         1 UNK         0.1397 
     77 H77        27.8106  -44.2903  -52.3417 H         1 UNK         0.1363 
     78 H78        30.0327  -42.3200  -55.4417 H         1 UNK         0.1355 
     79 H79        27.0075  -42.1364  -54.3850 H         1 UNK         0.0707 
     80 H80        27.7571  -42.8071  -55.8163 H         1 UNK         0.0707 
     81 H81        24.3446  -44.0108  -56.0354 H         1 UNK         0.1034 
     82 H82        25.7077  -43.2268  -56.7737 H         1 UNK         0.1034 
     83 H83        25.0609  -46.2061  -56.8100 H         1 UNK         0.0482 
     84 H84        25.3932  -46.9121  -59.3895 H         1 UNK         0.3460 
     85 H85        24.3193  -45.9762  -60.4156 H         1 UNK         0.3460 
     86 H86        27.1204  -46.7340  -57.3534 H         1 UNK         0.2989 
     87 H87        29.7678  -45.2225  -59.0848 H         1 UNK         0.0559 
     88 H88        30.3081  -44.3702  -56.8622 H         1 UNK         0.0848 
     89 H89        29.6590  -45.7987  -56.0777 H         1 UNK         0.0848 
     90 H90        31.1083  -45.9101  -57.0825 H         1 UNK         0.0848 
     91 H91        29.0750  -47.7266  -57.6550 H         1 UNK         0.3144 
     92 H92        28.1131  -49.3443  -60.6738 H         1 UNK         0.0727 
     93 H93        29.8756  -50.9939  -60.2127 H         1 UNK         0.0790 
     94 H94        30.6975  -49.8849  -59.1173 H         1 UNK         0.0790 
     95 H95        30.6122  -49.5291  -60.8358 H         1 UNK         0.0790 
     96 H96        28.4724  -50.5064  -58.1518 H         1 UNK         0.3215 
     97 H97        25.1897  -50.5908  -57.4669 H         1 UNK         0.0863 
     98 H98        27.1725  -52.1182  -57.3868 H         1 UNK         0.0808 
     99 H99        27.9496  -51.0733  -56.1916 H         1 UNK         0.0808 
    100 H100       26.4638  -51.9191  -55.7981 H         1 UNK         0.0808 
    101 H101       26.7503  -48.7217  -55.7422 H         1 UNK         0.3118 
    102 H102       24.3121  -47.0940  -54.6959 H         1 UNK         0.0546 
    103 H103       22.8845  -48.5464  -53.3336 H         1 UNK         0.0828 
    104 H104       23.9253  -47.6141  -52.2731 H         1 UNK         0.0828 
    105 H105       24.2761  -49.3134  -52.5891 H         1 UNK         0.0828 
    106 H106       26.3441  -46.5783  -54.0677 H         1 UNK         0.3005 
    107 H107       28.4344  -46.6372  -53.4856 H         1 UNK         0.1257 
    108 H108       28.5445  -48.3613  -50.9498 H         1 UNK         0.0775 
    109 H109       27.8679  -46.7628  -51.0677 H         1 UNK         0.0775 
    110 H110       28.9646  -44.8584  -50.2370 H         1 UNK         0.0840 
    111 H111       30.6741  -44.5669  -50.0767 H         1 UNK         0.0840 
    112 H112       30.2090  -48.7393  -52.9841 H         1 UNK         0.2987 
    113 H113       30.4524  -50.4452  -55.8186 H         1 UNK         0.0785 
    114 H114       31.1243  -48.5096  -57.2478 H         1 UNK         0.0798 
    115 H115       32.5389  -49.3821  -56.6977 H         1 UNK         0.0798 
    116 H116       32.0959  -47.8549  -55.9395 H         1 UNK         0.0798 
    117 H117       32.2463  -49.1321  -53.8067 H         1 UNK         0.3079 
    118 H118       32.5240  -50.6262  -51.7042 H         1 UNK         0.0794 
    119 H119       32.2151  -53.0901  -51.7236 H         1 UNK         0.0786 
    120 H120       33.8469  -52.6763  -51.2306 H         1 UNK         0.0786 
    121 H121       33.5427  -53.2741  -52.8622 H         1 UNK         0.0786 
    122 H122       34.9429  -51.2659  -53.1821 H         1 UNK         0.3032 
    123 H123       36.5269  -48.7866  -52.7338 H         1 UNK         0.1094 
    124 H124       37.4045  -49.5729  -54.9841 H         1 UNK         0.0794 
    125 H125       36.7041  -50.8659  -54.0392 H         1 UNK         0.0794 
    126 H126       35.7957  -50.1687  -55.3800 H         1 UNK         0.0794 
    127 H127       35.4269  -47.6551  -55.2513 H         1 UNK         0.3016 
@<TRIPOS>BOND
     1    1    2 1    
     2    1   67 1    
     3    1   68 1    
     4    1   69 1    
     5    2    3 2    
     6    2    4 am   BACKBONE|DICT|INTERRES
     7    4    5 1    
     8    4   70 1    
     9    5    6 1    
    10    5   65 1    
    11    5   71 1    
    12    6    7 1    
    13    6   72 1    
    14    6   73 1    
    15    7    8 1    
    16    8    9 1    
    17    8   74 1    
    18    8   75 1    
    19    9   10 ar   
    20    9   14 ar   
    21   10   11 ar   
    22   10   76 1    
    23   11   12 ar   
    24   11   48 1    
    25   12   13 ar   
    26   12   77 1    
    27   13   14 ar   
    28   13   15 1    
    29   14   78 1    
    30   15   16 1    
    31   15   79 1    
    32   15   80 1    
    33   16   17 1    
    34   17   18 1    
    35   17   81 1    
    36   17   82 1    
    37   18   19 1    
    38   18   22 1    
    39   18   83 1    
    40   19   20 am   BACKBONE|DICT|INTERRES
    41   19   21 2    
    42   20   84 1    
    43   20   85 1    
    44   22   23 am   BACKBONE|DICT|INTERRES
    45   22   86 1    
    46   23   24 2    
    47   23   25 1    
    48   25   26 1    
    49   25   27 1    
    50   25   87 1    
    51   26   88 1    
    52   26   89 1    
    53   26   90 1    
    54   27   28 am   BACKBONE|DICT|INTERRES
    55   27   91 1    
    56   28   29 2    
    57   28   30 1    
    58   30   31 1    
    59   30   32 1    
    60   30   92 1    
    61   31   93 1    
    62   31   94 1    
    63   31   95 1    
    64   32   33 am   BACKBONE|DICT|INTERRES
    65   32   96 1    
    66   33   34 2    
    67   33   35 1    
    68   35   36 1    
    69   35   37 1    
    70   35   97 1    
    71   36   98 1    
    72   36   99 1    
    73   36  100 1    
    74   37   38 am   BACKBONE|DICT|INTERRES
    75   37  101 1    
    76   38   39 2    
    77   38   40 1    
    78   40   41 1    
    79   40   42 1    
    80   40  102 1    
    81   41  103 1    
    82   41  104 1    
    83   41  105 1    
    84   42   43 am   BACKBONE|DICT|INTERRES
    85   42  106 1    
    86   43   44 2    
    87   43   45 1    
    88   45   46 1    
    89   45   49 1    
    90   45  107 1    
    91   46   47 1    
    92   46  108 1    
    93   46  109 1    
    94   47   48 1    
    95   48  110 1    
    96   48  111 1    
    97   49   50 am   BACKBONE|DICT|INTERRES
    98   49  112 1    
    99   50   51 2    
   100   50   52 1    
   101   52   53 1    
   102   52   54 1    
   103   52  113 1    
   104   53  114 1    
   105   53  115 1    
   106   53  116 1    
   107   54   55 am   BACKBONE|DICT|INTERRES
   108   54  117 1    
   109   55   56 2    
   110   55   57 1    
   111   57   58 1    
   112   57   59 1    
   113   57  118 1    
   114   58  119 1    
   115   58  120 1    
   116   58  121 1    
   117   59   60 am   BACKBONE|DICT|INTERRES
   118   59  122 1    
   119   60   61 2    
   120   60   62 1    
   121   62   63 1    
   122   62   64 1    
   123   62  123 1    
   124   63  124 1    
   125   63  125 1    
   126   63  126 1    
   127   64   65 am   BACKBONE|DICT|INTERRES
   128   64  127 1    
   129   65   66 2    
@<TRIPOS>SUBSTRUCTURE
     1 UNK         1 GROUP             0       ****    0 ROOT    
