@<TRIPOS>MOLECULE
3R134
127   129    1
SMALL
USER_CHARGES


@<TRIPOS>ATOM
      1 CA         37.0215  -45.8027  -56.2575 C.3       0 UNK        -0.1968 
      2 C          35.8480  -45.6928  -55.2965 C.2       0 UNK         0.4852 
      3 O          34.9490  -46.5357  -55.3341 O.2       0 UNK        -0.5359 
      4 N          35.8570  -44.6764  -54.4226 N.am      1 UNK        -0.4300 
      5 CA         34.8201  -44.3547  -53.4288 C.3       1 UNK         0.0863 
      6 C6         34.9471  -42.8832  -52.9516 C.3       11 UNK        -0.0953 
      7 S7         34.5458  -41.7054  -54.2860 S.3       11 UNK        -0.2369 
      8 C8         32.8369  -41.2363  -53.8573 C.3       11 UNK         0.0226 
      9 C9         31.8841  -42.4217  -53.9317 C.ar      11 UNK        -0.0699 
     10 C10        31.5641  -43.1423  -52.7765 C.ar      11 UNK        -0.0804 
     11 C11        30.7223  -44.2559  -52.8402 C.ar      11 UNK        -0.0871 
     12 C12        30.1522  -44.6060  -54.0674 C.ar      11 UNK        -0.1008 
     13 C13        30.4668  -43.9037  -55.2337 C.ar      11 UNK        -0.0735 
     14 C14        31.3414  -42.8134  -55.1589 C.ar      11 UNK        -0.0945 
     15 C15        29.9087  -44.3960  -56.5650 C.3       11 UNK         0.0169 
     16 S16        29.4437  -43.0806  -57.7353 S.3       11 UNK        -0.2669 
     17 C17        27.9742  -42.3451  -56.9338 C.3       11 UNK        -0.0850 
     18 CA         26.6151  -42.8005  -57.5316 C.3       10 UNK         0.0855 
     19 C          26.4708  -42.4546  -59.0456 C.2       10 UNK         0.5543 
     20 N          26.3547  -43.4272  -59.9440 N.am      10 UNK        -0.7343 
     21 O          26.4499  -41.2799  -59.4052 O.2       10 UNK        -0.5027 
     22 N          26.3071  -44.1972  -57.1879 N.am      10 UNK        -0.4495 
     23 C          25.0764  -44.7258  -57.2088 C.2       10 UNK         0.4903 
     24 O          24.0576  -44.0612  -57.4061 O.2       10 UNK        -0.4860 
     25 CA         24.9513  -46.2426  -56.9584 C.3       9 UNK         0.0227 
     26 CB         23.7510  -46.8620  -57.7043 C.3       9 UNK        -0.1964 
     27 N          26.1651  -47.0243  -57.2274 N.am      9 UNK        -0.4231 
     28 C          26.8374  -47.1362  -58.3838 C.2       9 UNK         0.5014 
     29 O          26.6041  -46.4575  -59.3854 O.2       9 UNK        -0.5270 
     30 CA         27.9540  -48.1964  -58.4311 C.3       8 UNK         0.0284 
     31 CB         29.2738  -47.6388  -57.8795 C.3       8 UNK        -0.1977 
     32 N          27.6093  -49.4243  -57.7090 N.am      8 UNK        -0.4342 
     33 C          26.6488  -50.2836  -58.0811 C.2       8 UNK         0.5039 
     34 O          25.9743  -50.1629  -59.1044 O.2       8 UNK        -0.5547 
     35 CA         26.3899  -51.4746  -57.1478 C.3       7 UNK         0.0281 
     36 CB         27.4184  -52.5921  -57.3883 C.3       7 UNK        -0.1963 
     37 N          26.4219  -51.0603  -55.7442 N.am      7 UNK        -0.4444 
     38 C          25.3745  -50.5376  -55.0910 C.2       7 UNK         0.5104 
     39 O          24.2532  -50.4129  -55.5838 O.2       7 UNK        -0.5100 
     40 CA         25.6063  -50.0737  -53.6403 C.3       6 UNK         0.0396 
     41 CB         25.2196  -51.1883  -52.6554 C.3       6 UNK        -0.1801 
     42 N          26.9802  -49.6432  -53.3658 N.am      6 UNK        -0.4747 
     43 C          27.5538  -48.5481  -53.8857 C.2       6 UNK         0.5012 
     44 O          26.9839  -47.7780  -54.6567 O.2       6 UNK        -0.5003 
     45 CA         29.0289  -48.2880  -53.5191 C.3       5 UNK         0.0782 
     46 C46        29.0964  -47.4930  -52.1916 C.3       11 UNK        -0.0868 
     47 S47        30.7646  -46.8606  -51.8048 S.3       11 UNK        -0.2515 
     48 C48        30.4466  -45.0725  -51.5811 C.3       11 UNK         0.0199 
     49 N          29.8507  -49.5063  -53.4870 N.am      5 UNK        -0.4607 
     50 C          29.9392  -50.4150  -54.4692 C.2       4 UNK         0.5031 
     51 O          29.2961  -50.3535  -55.5201 O.2       4 UNK        -0.5119 
     52 CA         30.9027  -51.5854  -54.2142 C.3       4 UNK         0.0263 
     53 CB         30.7267  -52.7375  -55.2265 C.3       4 UNK        -0.1967 
     54 N          32.2994  -51.1403  -54.1621 N.am      4 UNK        -0.4237 
     55 C          33.0116  -50.5490  -55.1321 C.2       3 UNK         0.4908 
     56 O          32.5718  -50.2660  -56.2477 O.2       3 UNK        -0.5102 
     57 CA         34.4745  -50.2233  -54.7794 C.3       3 UNK         0.0241 
     58 CB         35.3332  -49.9437  -56.0277 C.3       3 UNK        -0.1971 
     59 N          34.5778  -49.0788  -53.8732 N.am      3 UNK        -0.4139 
     60 C          34.3052  -49.1016  -52.5575 C.2       2 UNK         0.5016 
     61 O          33.8834  -50.1033  -51.9760 O.2       2 UNK        -0.5319 
     62 CA         34.5626  -47.8238  -51.7386 C.3       2 UNK         0.0286 
     63 CB         35.8684  -47.9894  -50.9319 C.3       2 UNK        -0.1963 
     64 N          34.6173  -46.6408  -52.5993 N.am      2 UNK        -0.4790 
     65 C          34.7879  -45.3625  -52.2537 C.2       1 UNK         0.5024 
     66 O          34.9210  -44.9769  -51.0911 O.2       1 UNK        -0.4888 
     67 H67        37.7487  -45.0049  -56.1077 H         1 UNK         0.0892 
     68 H68        37.5299  -46.7567  -56.1202 H         1 UNK         0.0892 
     69 H69        36.6672  -45.7505  -57.2866 H         1 UNK         0.0892 
     70 H70        36.6366  -44.0347  -54.4377 H         1 UNK         0.3107 
     71 H71        33.8539  -44.4615  -53.9262 H         1 UNK         0.0773 
     72 H72        35.9608  -42.6812  -52.6013 H         1 UNK         0.0680 
     73 H73        34.2975  -42.6761  -52.1007 H         1 UNK         0.0680 
     74 H74        32.8213  -40.7921  -52.8608 H         1 UNK         0.0650 
     75 H75        32.5040  -40.4558  -54.5431 H         1 UNK         0.0650 
     76 H76        31.9923  -42.8488  -51.8280 H         1 UNK         0.1397 
     77 H77        29.4817  -45.4487  -54.1213 H         1 UNK         0.1363 
     78 H78        31.6118  -42.2743  -56.0563 H         1 UNK         0.1355 
     79 H79        30.6687  -45.0204  -57.0358 H         1 UNK         0.0707 
     80 H80        29.0392  -45.0326  -56.4006 H         1 UNK         0.0707 
     81 H81        27.9984  -42.5491  -55.8622 H         1 UNK         0.1034 
     82 H82        28.0637  -41.2605  -57.0181 H         1 UNK         0.1034 
     83 H83        25.8564  -42.1930  -57.0339 H         1 UNK         0.0482 
     84 H84        26.3866  -44.4005  -59.6616 H         1 UNK         0.3460 
     85 H85        26.2569  -43.1904  -60.9181 H         1 UNK         0.3460 
     86 H86        27.0938  -44.8118  -57.0522 H         1 UNK         0.2989 
     87 H87        24.7630  -46.3509  -55.8894 H         1 UNK         0.0559 
     88 H88        23.8458  -46.7463  -58.7846 H         1 UNK         0.0848 
     89 H89        22.8132  -46.3917  -57.4063 H         1 UNK         0.0848 
     90 H90        23.6587  -47.9269  -57.4886 H         1 UNK         0.0848 
     91 H91        26.5016  -47.5543  -56.4255 H         1 UNK         0.3144 
     92 H92        28.1103  -48.4596  -59.4793 H         1 UNK         0.0727 
     93 H93        29.1975  -47.3954  -56.8199 H         1 UNK         0.0790 
     94 H94        29.5657  -46.7342  -58.4142 H         1 UNK         0.0790 
     95 H95        30.0854  -48.3582  -57.9943 H         1 UNK         0.0790 
     96 H96        28.1609  -49.6471  -56.8833 H         1 UNK         0.3215 
     97 H97        25.4006  -51.8759  -57.3799 H         1 UNK         0.0863 
     98 H98        27.2419  -53.4434  -56.7308 H         1 UNK         0.0808 
     99 H99        28.4404  -52.2487  -57.2273 H         1 UNK         0.0808 
    100 H100       27.3589  -52.9573  -58.4144 H         1 UNK         0.0808 
    101 H101       27.3277  -51.0615  -55.2914 H         1 UNK         0.3118 
    102 H102       24.9478  -49.2207  -53.4621 H         1 UNK         0.0546 
    103 H103       25.8563  -52.0668  -52.7676 H         1 UNK         0.0828 
    104 H104       24.1898  -51.5106  -52.8161 H         1 UNK         0.0828 
    105 H105       25.2920  -50.8490  -51.6220 H         1 UNK         0.0828 
    106 H106       27.5275  -50.2242  -52.7468 H         1 UNK         0.3005 
    107 H107       29.4402  -47.6721  -54.3197 H         1 UNK         0.1257 
    108 H108       28.7721  -48.1173  -51.3567 H         1 UNK         0.0775 
    109 H109       28.3983  -46.6540  -52.2198 H         1 UNK         0.0775 
    110 H110       29.4250  -44.8946  -51.2437 H         1 UNK         0.0840 
    111 H111       31.0891  -44.7305  -50.7680 H         1 UNK         0.0840 
    112 H112       30.4310  -49.6200  -52.6683 H         1 UNK         0.2987 
    113 H113       30.6643  -51.9817  -53.2259 H         1 UNK         0.0785 
    114 H114       29.7095  -53.1293  -55.1952 H         1 UNK         0.0798 
    115 H115       31.3992  -53.5661  -55.0049 H         1 UNK         0.0798 
    116 H116       30.9189  -52.4156  -56.2507 H         1 UNK         0.0798 
    117 H117       32.7568  -51.2208  -53.2583 H         1 UNK         0.3079 
    118 H118       34.8964  -51.0998  -54.2824 H         1 UNK         0.0794 
    119 H119       35.2965  -50.7834  -56.7230 H         1 UNK         0.0786 
    120 H120       36.3792  -49.7879  -55.7633 H         1 UNK         0.0786 
    121 H121       34.9895  -49.0590  -56.5658 H         1 UNK         0.0786 
    122 H122       34.8862  -48.2187  -54.3116 H         1 UNK         0.3032 
    123 H123       33.7261  -47.7032  -51.0472 H         1 UNK         0.1094 
    124 H124       36.0093  -47.1821  -50.2141 H         1 UNK         0.0794 
    125 H125       35.8608  -48.9181  -50.3592 H         1 UNK         0.0794 
    126 H126       36.7420  -48.0156  -51.5841 H         1 UNK         0.0794 
    127 H127       34.5012  -46.7986  -53.5974 H         1 UNK         0.3016 
@<TRIPOS>BOND
     1    1    2 1    
     2    1   67 1    
     3    1   68 1    
     4    1   69 1    
     5    2    3 2    
     6    2    4 am   BACKBONE|DICT|INTERRES
     7    4    5 1    
     8    4   70 1    
     9    5    6 1    
    10    5   65 1    
    11    5   71 1    
    12    6    7 1    
    13    6   72 1    
    14    6   73 1    
    15    7    8 1    
    16    8    9 1    
    17    8   74 1    
    18    8   75 1    
    19    9   10 ar   
    20    9   14 ar   
    21   10   11 ar   
    22   10   76 1    
    23   11   12 ar   
    24   11   48 1    
    25   12   13 ar   
    26   12   77 1    
    27   13   14 ar   
    28   13   15 1    
    29   14   78 1    
    30   15   16 1    
    31   15   79 1    
    32   15   80 1    
    33   16   17 1    
    34   17   18 1    
    35   17   81 1    
    36   17   82 1    
    37   18   19 1    
    38   18   22 1    
    39   18   83 1    
    40   19   20 am   BACKBONE|DICT|INTERRES
    41   19   21 2    
    42   20   84 1    
    43   20   85 1    
    44   22   23 am   BACKBONE|DICT|INTERRES
    45   22   86 1    
    46   23   24 2    
    47   23   25 1    
    48   25   26 1    
    49   25   27 1    
    50   25   87 1    
    51   26   88 1    
    52   26   89 1    
    53   26   90 1    
    54   27   28 am   BACKBONE|DICT|INTERRES
    55   27   91 1    
    56   28   29 2    
    57   28   30 1    
    58   30   31 1    
    59   30   32 1    
    60   30   92 1    
    61   31   93 1    
    62   31   94 1    
    63   31   95 1    
    64   32   33 am   BACKBONE|DICT|INTERRES
    65   32   96 1    
    66   33   34 2    
    67   33   35 1    
    68   35   36 1    
    69   35   37 1    
    70   35   97 1    
    71   36   98 1    
    72   36   99 1    
    73   36  100 1    
    74   37   38 am   BACKBONE|DICT|INTERRES
    75   37  101 1    
    76   38   39 2    
    77   38   40 1    
    78   40   41 1    
    79   40   42 1    
    80   40  102 1    
    81   41  103 1    
    82   41  104 1    
    83   41  105 1    
    84   42   43 am   BACKBONE|DICT|INTERRES
    85   42  106 1    
    86   43   44 2    
    87   43   45 1    
    88   45   46 1    
    89   45   49 1    
    90   45  107 1    
    91   46   47 1    
    92   46  108 1    
    93   46  109 1    
    94   47   48 1    
    95   48  110 1    
    96   48  111 1    
    97   49   50 am   BACKBONE|DICT|INTERRES
    98   49  112 1    
    99   50   51 2    
   100   50   52 1    
   101   52   53 1    
   102   52   54 1    
   103   52  113 1    
   104   53  114 1    
   105   53  115 1    
   106   53  116 1    
   107   54   55 am   BACKBONE|DICT|INTERRES
   108   54  117 1    
   109   55   56 2    
   110   55   57 1    
   111   57   58 1    
   112   57   59 1    
   113   57  118 1    
   114   58  119 1    
   115   58  120 1    
   116   58  121 1    
   117   59   60 am   BACKBONE|DICT|INTERRES
   118   59  122 1    
   119   60   61 2    
   120   60   62 1    
   121   62   63 1    
   122   62   64 1    
   123   62  123 1    
   124   63  124 1    
   125   63  125 1    
   126   63  126 1    
   127   64   65 am   BACKBONE|DICT|INTERRES
   128   64  127 1    
   129   65   66 2    
@<TRIPOS>SUBSTRUCTURE
     1 UNK         1 GROUP             0       ****    0 ROOT    
