@<TRIPOS>MOLECULE
3R134
127   129    1
SMALL
USER_CHARGES


@<TRIPOS>ATOM
      1 CA         30.0217  -46.2869  -47.8417 C.3       0 UNK        -0.1968 
      2 C          31.3817  -46.3159  -48.5241 C.2       0 UNK         0.4852 
      3 O          32.3943  -46.5430  -47.8593 O.2       0 UNK        -0.5359 
      4 N          31.4109  -46.0778  -49.8416 N.am      1 UNK        -0.4300 
      5 CA         32.6141  -46.1115  -50.6816 C.3       1 UNK         0.0863 
      6 C6         32.3659  -45.4618  -52.0690 C.3       11 UNK        -0.0953 
      7 S7         31.7928  -43.7347  -51.9063 S.3       11 UNK        -0.2369 
      8 C8         32.9758  -42.8119  -52.9369 C.3       11 UNK         0.0226 
      9 C9         32.5744  -42.8360  -54.4043 C.ar      11 UNK        -0.0699 
     10 C10        33.2569  -43.6449  -55.3172 C.ar      11 UNK        -0.0804 
     11 C11        32.8788  -43.6662  -56.6641 C.ar      11 UNK        -0.0871 
     12 C12        31.8296  -42.8504  -57.1005 C.ar      11 UNK        -0.1008 
     13 C13        31.1132  -42.0722  -56.1882 C.ar      11 UNK        -0.0735 
     14 C14        31.5019  -42.0547  -54.8456 C.ar      11 UNK        -0.0945 
     15 C15        29.8898  -41.2892  -56.6385 C.3       11 UNK         0.0169 
     16 S16        28.3803  -42.3079  -56.5224 S.3       11 UNK        -0.2669 
     17 C17        28.4699  -43.2932  -58.0584 C.3       11 UNK        -0.0850 
     18 CA         27.0717  -43.7781  -58.5291 C.3       10 UNK         0.0855 
     19 C          27.0906  -44.2765  -60.0071 C.2       10 UNK         0.5543 
     20 N          26.4642  -45.3947  -60.3538 N.am      10 UNK        -0.7343 
     21 O          27.6761  -43.6252  -60.8685 O.2       10 UNK        -0.5027 
     22 N          26.4851  -44.7445  -57.5831 N.am      10 UNK        -0.4495 
     23 C          25.1760  -44.8811  -57.3426 C.2       10 UNK         0.4903 
     24 O          24.3090  -44.1418  -57.8123 O.2       10 UNK        -0.4860 
     25 CA         24.7805  -46.0789  -56.4567 C.3       9 UNK         0.0227 
     26 CB         23.2543  -46.2298  -56.2857 C.3       9 UNK        -0.1964 
     27 N          25.3757  -47.3363  -56.9275 N.am      9 UNK        -0.4231 
     28 C          25.2388  -47.9098  -58.1335 C.2       9 UNK         0.5014 
     29 O          24.5478  -47.4425  -59.0393 O.2       9 UNK        -0.5270 
     30 CA         26.0362  -49.2000  -58.4083 C.3       8 UNK         0.0284 
     31 CB         27.1891  -48.9149  -59.3847 C.3       8 UNK        -0.1977 
     32 N          26.5822  -49.8320  -57.2048 N.am      8 UNK        -0.4342 
     33 C          25.8620  -50.4869  -56.2839 C.2       8 UNK         0.5039 
     34 O          24.6473  -50.6720  -56.3639 O.2       8 UNK        -0.5547 
     35 CA         26.6267  -50.9927  -55.0512 C.3       7 UNK         0.0281 
     36 CB         27.2889  -52.3511  -55.3350 C.3       7 UNK        -0.1963 
     37 N          27.6402  -50.0293  -54.6149 N.am      7 UNK        -0.4444 
     38 C          27.3716  -48.9069  -53.9336 C.2       7 UNK         0.5104 
     39 O          26.2451  -48.5877  -53.5545 O.2       7 UNK        -0.5100 
     40 CA         28.5563  -47.9692  -53.6471 C.3       6 UNK         0.0396 
     41 CB         29.2918  -48.4101  -52.3734 C.3       6 UNK        -0.1801 
     42 N          29.5041  -47.8889  -54.7614 N.am      6 UNK        -0.4747 
     43 C          29.2295  -47.3131  -55.9436 C.2       6 UNK         0.5012 
     44 O          28.1641  -46.7531  -56.2022 O.2       6 UNK        -0.5003 
     45 CA         30.3186  -47.3729  -57.0346 C.3       5 UNK         0.0782 
     46 C46        31.2616  -46.1673  -56.8502 C.3       11 UNK        -0.0868 
     47 S47        32.3730  -45.8965  -58.2728 S.3       11 UNK        -0.2515 
     48 C48        33.5408  -44.6411  -57.6301 C.3       11 UNK         0.0199 
     49 N          31.0815  -48.6213  -57.0435 N.am      5 UNK        -0.4607 
     50 C          30.6156  -49.8744  -56.9772 C.2       4 UNK         0.5031 
     51 O          29.4228  -50.1668  -57.0573 O.2       4 UNK        -0.5119 
     52 CA         31.6525  -50.9818  -56.7006 C.3       4 UNK         0.0263 
     53 CB         31.8914  -51.8159  -57.9687 C.3       4 UNK        -0.1967 
     54 N          32.9437  -50.4918  -56.1883 N.am      4 UNK        -0.4237 
     55 C          33.1229  -49.7772  -55.0655 C.2       3 UNK         0.4908 
     56 O          32.2083  -49.4615  -54.2992 O.2       3 UNK        -0.5102 
     57 CA         34.5439  -49.2352  -54.8397 C.3       3 UNK         0.0241 
     58 CB         34.7989  -48.0171  -55.7462 C.3       3 UNK        -0.1971 
     59 N          34.7580  -48.8274  -53.4527 N.am      3 UNK        -0.4139 
     60 C          34.9851  -49.6597  -52.4295 C.2       2 UNK         0.5016 
     61 O          35.1041  -50.8802  -52.5494 O.2       2 UNK        -0.5319 
     62 CA         35.1268  -49.0197  -51.0358 C.3       2 UNK         0.0286 
     63 CB         36.6113  -48.8640  -50.6659 C.3       2 UNK        -0.1963 
     64 N          34.4625  -47.7147  -50.9154 N.am      2 UNK        -0.4790 
     65 C          33.1343  -47.5579  -50.8268 C.2       1 UNK         0.5024 
     66 O          32.3369  -48.4975  -50.8625 O.2       1 UNK        -0.4888 
     67 H67        30.0091  -45.5261  -47.0618 H         1 UNK         0.0892 
     68 H68        29.8133  -47.2520  -47.3807 H         1 UNK         0.0892 
     69 H69        29.2175  -46.0662  -48.5435 H         1 UNK         0.0892 
     70 H70        30.5485  -45.8917  -50.3314 H         1 UNK         0.3107 
     71 H71        33.3840  -45.5302  -50.1691 H         1 UNK         0.0773 
     72 H72        31.6179  -46.0169  -52.6373 H         1 UNK         0.0680 
     73 H73        33.2772  -45.4844  -52.6688 H         1 UNK         0.0680 
     74 H74        33.0015  -41.7768  -52.5932 H         1 UNK         0.0650 
     75 H75        33.9842  -43.2031  -52.7939 H         1 UNK         0.0650 
     76 H76        34.0647  -44.2760  -54.9730 H         1 UNK         0.1397 
     77 H77        31.5244  -42.8816  -58.1375 H         1 UNK         0.1363 
     78 H78        30.9511  -41.4538  -54.1347 H         1 UNK         0.1355 
     79 H79        30.0217  -40.9174  -57.6556 H         1 UNK         0.0707 
     80 H80        29.7647  -40.4071  -56.0087 H         1 UNK         0.0707 
     81 H81        29.1368  -44.1416  -57.9107 H         1 UNK         0.1034 
     82 H82        28.9367  -42.6717  -58.8245 H         1 UNK         0.1034 
     83 H83        26.4281  -42.8966  -58.5509 H         1 UNK         0.0482 
     84 H84        25.9081  -45.9137  -59.6876 H         1 UNK         0.3460 
     85 H85        26.4870  -45.6847  -61.3183 H         1 UNK         0.3460 
     86 H86        27.1255  -45.4052  -57.1519 H         1 UNK         0.2989 
     87 H87        25.2075  -45.8884  -55.4708 H         1 UNK         0.0559 
     88 H88        23.0107  -47.0639  -55.6276 H         1 UNK         0.0848 
     89 H89        22.7535  -46.3984  -57.2397 H         1 UNK         0.0848 
     90 H90        22.8202  -45.3316  -55.8450 H         1 UNK         0.0848 
     91 H91        26.0363  -47.7622  -56.2912 H         1 UNK         0.3144 
     92 H92        25.3543  -49.9090  -58.8823 H         1 UNK         0.0727 
     93 H93        27.7585  -49.8181  -59.6053 H         1 UNK         0.0790 
     94 H94        27.8786  -48.1722  -58.9845 H         1 UNK         0.0790 
     95 H95        26.8122  -48.5301  -60.3332 H         1 UNK         0.0790 
     96 H96        27.5940  -49.8049  -57.0913 H         1 UNK         0.3215 
     97 H97        25.9049  -51.1301  -54.2427 H         1 UNK         0.0863 
     98 H98        27.7942  -52.7382  -54.4501 H         1 UNK         0.0808 
     99 H99        28.0222  -52.2889  -56.1398 H         1 UNK         0.0808 
    100 H100       26.5440  -53.0909  -55.6314 H         1 UNK         0.0808 
    101 H101       28.5842  -50.1790  -54.9449 H         1 UNK         0.3118 
    102 H102       28.1525  -46.9691  -53.4748 H         1 UNK         0.0546 
    103 H103       28.6029  -48.5050  -51.5329 H         1 UNK         0.0828 
    104 H104       30.0495  -47.6842  -52.0858 H         1 UNK         0.0828 
    105 H105       29.7877  -49.3733  -52.5015 H         1 UNK         0.0828 
    106 H106       30.4068  -48.3350  -54.6299 H         1 UNK         0.3005 
    107 H107       29.8168  -47.2863  -57.9994 H         1 UNK         0.1257 
    108 H108       31.8623  -46.2863  -55.9462 H         1 UNK         0.0775 
    109 H109       30.6798  -45.2576  -56.7023 H         1 UNK         0.0775 
    110 H110       34.3731  -45.1555  -57.1477 H         1 UNK         0.0840 
    111 H111       33.9682  -44.0887  -58.4680 H         1 UNK         0.0840 
    112 H112       32.0820  -48.5043  -57.0025 H         1 UNK         0.2987 
    113 H113       31.2234  -51.6329  -55.9362 H         1 UNK         0.0785 
    114 H114       32.3426  -51.2216  -58.7643 H         1 UNK         0.0798 
    115 H115       30.9529  -52.2172  -58.3547 H         1 UNK         0.0798 
    116 H116       32.5451  -52.6652  -57.7693 H         1 UNK         0.0798 
    117 H117       33.7506  -50.6890  -56.7636 H         1 UNK         0.3079 
    118 H118       35.2606  -50.0208  -55.0892 H         1 UNK         0.0794 
    119 H119       34.1110  -47.1998  -55.5271 H         1 UNK         0.0786 
    120 H120       34.6799  -48.2703  -56.8006 H         1 UNK         0.0786 
    121 H121       35.8140  -47.6389  -55.6230 H         1 UNK         0.0786 
    122 H122       34.6420  -47.8482  -53.2430 H         1 UNK         0.3032 
    123 H123       34.6680  -49.7065  -50.3202 H         1 UNK         0.1094 
    124 H124       37.1273  -48.1792  -51.3401 H         1 UNK         0.0794 
    125 H125       36.7302  -48.4897  -49.6489 H         1 UNK         0.0794 
    126 H126       37.1288  -49.8231  -50.7177 H         1 UNK         0.0794 
    127 H127       35.0608  -46.9017  -50.8650 H         1 UNK         0.3016 
@<TRIPOS>BOND
     1    1    2 1    
     2    1   67 1    
     3    1   68 1    
     4    1   69 1    
     5    2    3 2    
     6    2    4 am   BACKBONE|DICT|INTERRES
     7    4    5 1    
     8    4   70 1    
     9    5    6 1    
    10    5   65 1    
    11    5   71 1    
    12    6    7 1    
    13    6   72 1    
    14    6   73 1    
    15    7    8 1    
    16    8    9 1    
    17    8   74 1    
    18    8   75 1    
    19    9   10 ar   
    20    9   14 ar   
    21   10   11 ar   
    22   10   76 1    
    23   11   12 ar   
    24   11   48 1    
    25   12   13 ar   
    26   12   77 1    
    27   13   14 ar   
    28   13   15 1    
    29   14   78 1    
    30   15   16 1    
    31   15   79 1    
    32   15   80 1    
    33   16   17 1    
    34   17   18 1    
    35   17   81 1    
    36   17   82 1    
    37   18   19 1    
    38   18   22 1    
    39   18   83 1    
    40   19   20 am   BACKBONE|DICT|INTERRES
    41   19   21 2    
    42   20   84 1    
    43   20   85 1    
    44   22   23 am   BACKBONE|DICT|INTERRES
    45   22   86 1    
    46   23   24 2    
    47   23   25 1    
    48   25   26 1    
    49   25   27 1    
    50   25   87 1    
    51   26   88 1    
    52   26   89 1    
    53   26   90 1    
    54   27   28 am   BACKBONE|DICT|INTERRES
    55   27   91 1    
    56   28   29 2    
    57   28   30 1    
    58   30   31 1    
    59   30   32 1    
    60   30   92 1    
    61   31   93 1    
    62   31   94 1    
    63   31   95 1    
    64   32   33 am   BACKBONE|DICT|INTERRES
    65   32   96 1    
    66   33   34 2    
    67   33   35 1    
    68   35   36 1    
    69   35   37 1    
    70   35   97 1    
    71   36   98 1    
    72   36   99 1    
    73   36  100 1    
    74   37   38 am   BACKBONE|DICT|INTERRES
    75   37  101 1    
    76   38   39 2    
    77   38   40 1    
    78   40   41 1    
    79   40   42 1    
    80   40  102 1    
    81   41  103 1    
    82   41  104 1    
    83   41  105 1    
    84   42   43 am   BACKBONE|DICT|INTERRES
    85   42  106 1    
    86   43   44 2    
    87   43   45 1    
    88   45   46 1    
    89   45   49 1    
    90   45  107 1    
    91   46   47 1    
    92   46  108 1    
    93   46  109 1    
    94   47   48 1    
    95   48  110 1    
    96   48  111 1    
    97   49   50 am   BACKBONE|DICT|INTERRES
    98   49  112 1    
    99   50   51 2    
   100   50   52 1    
   101   52   53 1    
   102   52   54 1    
   103   52  113 1    
   104   53  114 1    
   105   53  115 1    
   106   53  116 1    
   107   54   55 am   BACKBONE|DICT|INTERRES
   108   54  117 1    
   109   55   56 2    
   110   55   57 1    
   111   57   58 1    
   112   57   59 1    
   113   57  118 1    
   114   58  119 1    
   115   58  120 1    
   116   58  121 1    
   117   59   60 am   BACKBONE|DICT|INTERRES
   118   59  122 1    
   119   60   61 2    
   120   60   62 1    
   121   62   63 1    
   122   62   64 1    
   123   62  123 1    
   124   63  124 1    
   125   63  125 1    
   126   63  126 1    
   127   64   65 am   BACKBONE|DICT|INTERRES
   128   64  127 1    
   129   65   66 2    
@<TRIPOS>SUBSTRUCTURE
     1 UNK         1 GROUP             0       ****    0 ROOT    
