@<TRIPOS>MOLECULE
3R134
127   129    1
SMALL
USER_CHARGES


@<TRIPOS>ATOM
      1 CA         31.5793  -46.8517  -54.3634 C.3       0 UNK        -0.1968 
      2 C          33.0207  -46.4210  -54.5301 C.2       0 UNK         0.4852 
      3 O          33.5701  -46.5528  -55.6255 O.2       0 UNK        -0.5359 
      4 N          33.6305  -45.9301  -53.4424 N.am      1 UNK        -0.4300 
      5 CA         35.0031  -45.4276  -53.3355 C.3       1 UNK         0.0863 
      6 C6         35.2752  -44.1834  -54.2238 C.3       11 UNK        -0.0953 
      7 S7         34.3558  -42.7097  -53.6534 S.3       11 UNK        -0.2369 
      8 C8         32.9024  -42.6413  -54.7677 C.3       11 UNK         0.0226 
      9 C9         31.5902  -43.2092  -54.2115 C.ar      11 UNK        -0.0699 
     10 C10        31.3999  -43.5021  -52.8525 C.ar      11 UNK        -0.0804 
     11 C11        30.1812  -44.0122  -52.3920 C.ar      11 UNK        -0.0871 
     12 C12        29.1329  -44.2043  -53.2938 C.ar      11 UNK        -0.1008 
     13 C13        29.3027  -43.9245  -54.6506 C.ar      11 UNK        -0.0735 
     14 C14        30.5299  -43.4248  -55.1011 C.ar      11 UNK        -0.0945 
     15 C15        28.1662  -44.2076  -55.6216 C.3       11 UNK         0.0169 
     16 S16        27.1804  -42.7228  -55.9678 S.3       11 UNK        -0.2669 
     17 C17        27.9354  -42.1467  -57.5268 C.3       11 UNK        -0.0850 
     18 CA         27.0525  -42.4796  -58.7593 C.3       10 UNK         0.0855 
     19 C          27.5560  -41.7394  -60.0338 C.2       10 UNK         0.5543 
     20 N          27.8535  -42.4243  -61.1317 N.am      10 UNK        -0.7343 
     21 O          27.6677  -40.5159  -60.0302 O.2       10 UNK        -0.5027 
     22 N          26.8713  -43.9346  -58.9461 N.am      10 UNK        -0.4495 
     23 C          25.7509  -44.4955  -59.4210 C.2       10 UNK         0.4903 
     24 O          24.7266  -43.8589  -59.6720 O.2       10 UNK        -0.4860 
     25 CA         25.7566  -46.0097  -59.7046 C.3       9 UNK         0.0227 
     26 CB         25.6673  -46.2648  -61.2198 C.3       9 UNK        -0.1964 
     27 N          26.9193  -46.7333  -59.1781 N.am      9 UNK        -0.4231 
     28 C          27.0051  -47.2399  -57.9413 C.2       9 UNK         0.5014 
     29 O          26.1788  -47.0297  -57.0513 O.2       9 UNK        -0.5270 
     30 CA         28.2328  -48.1267  -57.6588 C.3       8 UNK         0.0284 
     31 CB         29.3693  -47.3163  -57.0259 C.3       8 UNK        -0.1977 
     32 N          27.9159  -49.2561  -56.7826 N.am      8 UNK        -0.4342 
     33 C          27.1396  -50.2919  -57.1285 C.2       8 UNK         0.5039 
     34 O          26.6262  -50.4254  -58.2406 O.2       8 UNK        -0.5547 
     35 CA         26.9123  -51.3745  -56.0647 C.3       7 UNK         0.0281 
     36 CB         28.0949  -52.3576  -56.0385 C.3       7 UNK        -0.1963 
     37 N          26.7216  -50.7982  -54.7319 N.am      7 UNK        -0.4444 
     38 C          25.5285  -50.4703  -54.2148 C.2       7 UNK         0.5104 
     39 O          24.4617  -50.6188  -54.8120 O.2       7 UNK        -0.5100 
     40 CA         25.5012  -49.9136  -52.7778 C.3       6 UNK         0.0396 
     41 CB         25.1094  -51.0216  -51.7867 C.3       6 UNK        -0.1801 
     42 N          26.7770  -49.3306  -52.3580 N.am      6 UNK        -0.4747 
     43 C          27.2074  -48.1107  -52.7105 C.2       6 UNK         0.5012 
     44 O          26.5374  -47.3123  -53.3639 O.2       6 UNK        -0.5003 
     45 CA         28.6367  -47.7190  -52.2816 C.3       5 UNK         0.0782 
     46 C46        28.6031  -46.8345  -51.0104 C.3       11 UNK        -0.0868 
     47 S47        30.2374  -46.1292  -50.5937 S.3       11 UNK        -0.2515 
     48 C48        29.9958  -44.3503  -50.9193 C.3       11 UNK         0.0199 
     49 N          29.5369  -48.8731  -52.1233 N.am      5 UNK        -0.4607 
     50 C          29.8878  -49.7163  -53.1018 C.2       4 UNK         0.5031 
     51 O          29.4334  -49.6599  -54.2479 O.2       4 UNK        -0.5119 
     52 CA         30.8721  -50.8361  -52.7328 C.3       4 UNK         0.0263 
     53 CB         30.1237  -52.1647  -52.5403 C.3       4 UNK        -0.1967 
     54 N          31.8768  -50.9887  -53.7864 N.am      4 UNK        -0.4237 
     55 C          32.9435  -50.1899  -53.9205 C.2       3 UNK         0.4908 
     56 O          33.2649  -49.3468  -53.0797 O.2       3 UNK        -0.5102 
     57 CA         33.7669  -50.3478  -55.2125 C.3       3 UNK         0.0241 
     58 CB         32.8769  -50.2477  -56.4676 C.3       3 UNK        -0.1971 
     59 N          34.7860  -49.2997  -55.2949 N.am      3 UNK        -0.4139 
     60 C          36.0998  -49.4606  -55.0895 C.2       2 UNK         0.5016 
     61 O          36.6328  -50.5477  -54.8619 O.2       2 UNK        -0.5319 
     62 CA         36.9751  -48.1941  -55.1538 C.3       2 UNK         0.0286 
     63 CB         37.5588  -48.0161  -56.5647 C.3       2 UNK        -0.1963 
     64 N          36.2235  -46.9898  -54.7918 N.am      2 UNK        -0.4790 
     65 C          36.0281  -46.5638  -53.5378 C.2       1 UNK         0.5024 
     66 O          36.5941  -47.0494  -52.5574 O.2       1 UNK        -0.4888 
     67 H67        30.9236  -46.1476  -54.8655 H         1 UNK         0.0892 
     68 H68        31.3049  -46.8971  -53.3118 H         1 UNK         0.0892 
     69 H69        31.4240  -47.8342  -54.8016 H         1 UNK         0.0892 
     70 H70        33.1103  -45.9033  -52.5770 H         1 UNK         0.3107 
     71 H71        35.1178  -45.1119  -52.2970 H         1 UNK         0.0773 
     72 H72        36.3347  -43.9236  -54.1857 H         1 UNK         0.0680 
     73 H73        35.0569  -44.3781  -55.2743 H         1 UNK         0.0680 
     74 H74        33.1459  -43.1390  -55.7073 H         1 UNK         0.0650 
     75 H75        32.7291  -41.5938  -55.0171 H         1 UNK         0.0650 
     76 H76        32.1977  -43.3407  -52.1423 H         1 UNK         0.1397 
     77 H77        28.1842  -44.5874  -52.9447 H         1 UNK         0.1363 
     78 H78        30.6650  -43.2095  -56.1516 H         1 UNK         0.1355 
     79 H79        27.5055  -44.9750  -55.2136 H         1 UNK         0.0707 
     80 H80        28.5587  -44.6173  -56.5509 H         1 UNK         0.0707 
     81 H81        28.0675  -41.0670  -57.4320 H         1 UNK         0.1034 
     82 H82        28.9386  -42.5566  -57.6477 H         1 UNK         0.1034 
     83 H83        26.0732  -42.0409  -58.5577 H         1 UNK         0.0482 
     84 H84        27.7562  -43.4259  -61.1529 H         1 UNK         0.3460 
     85 H85        28.1726  -41.9300  -61.9501 H         1 UNK         0.3460 
     86 H86        27.6748  -44.5194  -58.7778 H         1 UNK         0.2989 
     87 H87        24.8539  -46.4205  -59.2470 H         1 UNK         0.0559 
     88 H88        26.5398  -45.8802  -61.7493 H         1 UNK         0.0848 
     89 H89        24.7884  -45.7813  -61.6488 H         1 UNK         0.0848 
     90 H90        25.5833  -47.3295  -61.4388 H         1 UNK         0.0848 
     91 H91        27.6534  -46.9452  -59.8395 H         1 UNK         0.3144 
     92 H92        28.5916  -48.5350  -58.6061 H         1 UNK         0.0727 
     93 H93        29.6408  -46.4594  -57.6431 H         1 UNK         0.0790 
     94 H94        30.2657  -47.9251  -56.9120 H         1 UNK         0.0790 
     95 H95        29.0836  -46.9483  -56.0406 H         1 UNK         0.0790 
     96 H96        28.3240  -49.2459  -55.8533 H         1 UNK         0.3215 
     97 H97        26.0201  -51.9378  -56.3482 H         1 UNK         0.0863 
     98 H98        29.0343  -51.8598  -55.7963 H         1 UNK         0.0808 
     99 H99        28.2234  -52.8340  -57.0114 H         1 UNK         0.0808 
    100 H100       27.9346  -53.1516  -55.3092 H         1 UNK         0.0808 
    101 H101       27.5594  -50.5755  -54.2094 H         1 UNK         0.3118 
    102 H102       24.7319  -49.1392  -52.7393 H         1 UNK         0.0546 
    103 H103       25.8398  -51.8316  -51.7743 H         1 UNK         0.0828 
    104 H104       24.1450  -51.4579  -52.0508 H         1 UNK         0.0828 
    105 H105       25.0191  -50.6336  -50.7720 H         1 UNK         0.0828 
    106 H106       27.3866  -49.9117  -51.8007 H         1 UNK         0.3005 
    107 H107       29.0235  -47.1151  -53.1036 H         1 UNK         0.1257 
    108 H108       28.2615  -47.4187  -50.1538 H         1 UNK         0.0775 
    109 H109       27.8799  -46.0245  -51.1184 H         1 UNK         0.0775 
    110 H110       29.0103  -44.0319  -50.5764 H         1 UNK         0.0840 
    111 H111       30.7130  -43.7902  -50.3174 H         1 UNK         0.0840 
    112 H112       29.9548  -48.9795  -51.2098 H         1 UNK         0.2987 
    113 H113       31.3718  -50.5833  -51.7948 H         1 UNK         0.0785 
    114 H114       29.3795  -52.0841  -51.7468 H         1 UNK         0.0798 
    115 H115       30.8077  -52.9656  -52.2589 H         1 UNK         0.0798 
    116 H116       29.6021  -52.4750  -53.4457 H         1 UNK         0.0798 
    117 H117       31.6540  -51.6347  -54.5293 H         1 UNK         0.3079 
    118 H118       34.2351  -51.3339  -55.1903 H         1 UNK         0.0794 
    119 H119       32.1365  -51.0470  -56.5067 H         1 UNK         0.0786 
    120 H120       33.4732  -50.3261  -57.3770 H         1 UNK         0.0786 
    121 H121       32.3396  -49.2998  -56.5080 H         1 UNK         0.0786 
    122 H122       34.4352  -48.3555  -55.4198 H         1 UNK         0.3032 
    123 H123       37.8040  -48.3291  -54.4548 H         1 UNK         0.1094 
    124 H124       38.1406  -48.8908  -56.8590 H         1 UNK         0.0794 
    125 H125       36.7764  -47.8776  -57.3121 H         1 UNK         0.0794 
    126 H126       38.2247  -47.1542  -56.6118 H         1 UNK         0.0794 
    127 H127       35.6356  -46.5802  -55.5100 H         1 UNK         0.3016 
@<TRIPOS>BOND
     1    1    2 1    
     2    1   67 1    
     3    1   68 1    
     4    1   69 1    
     5    2    3 2    
     6    2    4 am   BACKBONE|DICT|INTERRES
     7    4    5 1    
     8    4   70 1    
     9    5    6 1    
    10    5   65 1    
    11    5   71 1    
    12    6    7 1    
    13    6   72 1    
    14    6   73 1    
    15    7    8 1    
    16    8    9 1    
    17    8   74 1    
    18    8   75 1    
    19    9   10 ar   
    20    9   14 ar   
    21   10   11 ar   
    22   10   76 1    
    23   11   12 ar   
    24   11   48 1    
    25   12   13 ar   
    26   12   77 1    
    27   13   14 ar   
    28   13   15 1    
    29   14   78 1    
    30   15   16 1    
    31   15   79 1    
    32   15   80 1    
    33   16   17 1    
    34   17   18 1    
    35   17   81 1    
    36   17   82 1    
    37   18   19 1    
    38   18   22 1    
    39   18   83 1    
    40   19   20 am   BACKBONE|DICT|INTERRES
    41   19   21 2    
    42   20   84 1    
    43   20   85 1    
    44   22   23 am   BACKBONE|DICT|INTERRES
    45   22   86 1    
    46   23   24 2    
    47   23   25 1    
    48   25   26 1    
    49   25   27 1    
    50   25   87 1    
    51   26   88 1    
    52   26   89 1    
    53   26   90 1    
    54   27   28 am   BACKBONE|DICT|INTERRES
    55   27   91 1    
    56   28   29 2    
    57   28   30 1    
    58   30   31 1    
    59   30   32 1    
    60   30   92 1    
    61   31   93 1    
    62   31   94 1    
    63   31   95 1    
    64   32   33 am   BACKBONE|DICT|INTERRES
    65   32   96 1    
    66   33   34 2    
    67   33   35 1    
    68   35   36 1    
    69   35   37 1    
    70   35   97 1    
    71   36   98 1    
    72   36   99 1    
    73   36  100 1    
    74   37   38 am   BACKBONE|DICT|INTERRES
    75   37  101 1    
    76   38   39 2    
    77   38   40 1    
    78   40   41 1    
    79   40   42 1    
    80   40  102 1    
    81   41  103 1    
    82   41  104 1    
    83   41  105 1    
    84   42   43 am   BACKBONE|DICT|INTERRES
    85   42  106 1    
    86   43   44 2    
    87   43   45 1    
    88   45   46 1    
    89   45   49 1    
    90   45  107 1    
    91   46   47 1    
    92   46  108 1    
    93   46  109 1    
    94   47   48 1    
    95   48  110 1    
    96   48  111 1    
    97   49   50 am   BACKBONE|DICT|INTERRES
    98   49  112 1    
    99   50   51 2    
   100   50   52 1    
   101   52   53 1    
   102   52   54 1    
   103   52  113 1    
   104   53  114 1    
   105   53  115 1    
   106   53  116 1    
   107   54   55 am   BACKBONE|DICT|INTERRES
   108   54  117 1    
   109   55   56 2    
   110   55   57 1    
   111   57   58 1    
   112   57   59 1    
   113   57  118 1    
   114   58  119 1    
   115   58  120 1    
   116   58  121 1    
   117   59   60 am   BACKBONE|DICT|INTERRES
   118   59  122 1    
   119   60   61 2    
   120   60   62 1    
   121   62   63 1    
   122   62   64 1    
   123   62  123 1    
   124   63  124 1    
   125   63  125 1    
   126   63  126 1    
   127   64   65 am   BACKBONE|DICT|INTERRES
   128   64  127 1    
   129   65   66 2    
@<TRIPOS>SUBSTRUCTURE
     1 UNK         1 GROUP             0       ****    0 ROOT    
