@<TRIPOS>MOLECULE
3R134
127   129    1
SMALL
USER_CHARGES


@<TRIPOS>ATOM
      1 CA         35.1781  -44.3451  -57.4850 C.3       0 UNK        -0.1968 
      2 C          34.6098  -44.0220  -56.1108 C.2       0 UNK         0.4852 
      3 O          34.4229  -42.8478  -55.7954 O.2       0 UNK        -0.5359 
      4 N          34.3447  -45.0595  -55.3094 N.am      1 UNK        -0.4300 
      5 CA         33.7392  -45.0657  -53.9769 C.3       1 UNK         0.0863 
      6 C6         34.4930  -44.1812  -52.9354 C.3       11 UNK        -0.0953 
      7 S7         33.4839  -43.7224  -51.4825 S.3       11 UNK        -0.2369 
      8 C8         32.7296  -42.1452  -52.0002 C.3       11 UNK         0.0226 
      9 C9         31.5284  -42.3632  -52.9090 C.ar      11 UNK        -0.0699 
     10 C10        30.3656  -42.9502  -52.3988 C.ar      11 UNK        -0.0804 
     11 C11        29.2708  -43.2004  -53.2328 C.ar      11 UNK        -0.0871 
     12 C12        29.3266  -42.8029  -54.5692 C.ar      11 UNK        -0.1008 
     13 C13        30.4750  -42.2044  -55.0899 C.ar      11 UNK        -0.0735 
     14 C14        31.5754  -41.9867  -54.2555 C.ar      11 UNK        -0.0945 
     15 C15        30.5117  -41.7959  -56.5555 C.3       11 UNK         0.0169 
     16 S16        31.3989  -42.9922  -57.6074 S.3       11 UNK        -0.2669 
     17 C17        30.5012  -44.5559  -57.3183 C.3       11 UNK        -0.0850 
     18 CA         29.1732  -44.6610  -58.1198 C.3       10 UNK         0.0855 
     19 C          29.3489  -45.2642  -59.5457 C.2       10 UNK         0.5543 
     20 N          28.3867  -46.0152  -60.0693 N.am      10 UNK        -0.7343 
     21 O          30.3657  -45.0461  -60.1989 O.2       10 UNK        -0.5027 
     22 N          28.1452  -45.3636  -57.3380 N.am      10 UNK        -0.4495 
     23 C          26.9954  -44.8322  -56.9051 C.2       10 UNK         0.4903 
     24 O          26.7071  -43.6400  -57.0168 O.2       10 UNK        -0.4860 
     25 CA         25.9958  -45.7980  -56.2309 C.3       9 UNK         0.0227 
     26 CB         24.5452  -45.2729  -56.2804 C.3       9 UNK        -0.1964 
     27 N          26.0562  -47.1805  -56.7362 N.am      9 UNK        -0.4231 
     28 C          25.9035  -47.5620  -58.0149 C.2       9 UNK         0.5014 
     29 O          25.7342  -46.7647  -58.9395 O.2       9 UNK        -0.5270 
     30 CA         25.9600  -49.0620  -58.3417 C.3       8 UNK         0.0284 
     31 CB         26.5647  -49.3286  -59.7372 C.3       8 UNK        -0.1977 
     32 N          26.6823  -49.8613  -57.3461 N.am      8 UNK        -0.4342 
     33 C          26.3696  -51.1395  -57.0838 C.2       8 UNK         0.5039 
     34 O          25.3457  -51.6913  -57.4914 O.2       8 UNK        -0.5547 
     35 CA         27.3826  -51.9737  -56.2876 C.3       7 UNK         0.0281 
     36 CB         28.5682  -52.3668  -57.1845 C.3       7 UNK        -0.1963 
     37 N          27.8656  -51.3149  -55.0752 N.am      7 UNK        -0.4444 
     38 C          27.1357  -51.1655  -53.9611 C.2       7 UNK         0.5104 
     39 O          25.9674  -51.5391  -53.8496 O.2       7 UNK        -0.5100 
     40 CA         27.8236  -50.4882  -52.7618 C.3       6 UNK         0.0396 
     41 CB         28.7201  -51.4872  -52.0134 C.3       6 UNK        -0.1801 
     42 N          28.6095  -49.3092  -53.1287 N.am      6 UNK        -0.4747 
     43 C          28.1076  -48.2041  -53.6979 C.2       6 UNK         0.5012 
     44 O          26.9201  -48.0606  -53.9892 O.2       6 UNK        -0.5003 
     45 CA         29.1197  -47.1040  -54.0724 C.3       5 UNK         0.0782 
     46 C46        29.6483  -46.3102  -52.8527 C.3       11 UNK        -0.0868 
     47 S47        28.3772  -45.4776  -51.8342 S.3       11 UNK        -0.2515 
     48 C48        28.0286  -43.9162  -52.7166 C.3       11 UNK         0.0199 
     49 N          30.2214  -47.6852  -54.8424 N.am      5 UNK        -0.4607 
     50 C          30.1118  -48.1883  -56.0793 C.2       4 UNK         0.5031 
     51 O          29.0880  -48.1074  -56.7605 O.2       4 UNK        -0.5119 
     52 CA         31.3377  -48.9317  -56.6368 C.3       4 UNK         0.0263 
     53 CB         32.2285  -47.9877  -57.4569 C.3       4 UNK        -0.1967 
     54 N          32.1370  -49.5689  -55.5851 N.am      4 UNK        -0.4237 
     55 C          31.7561  -50.6769  -54.9320 C.2       3 UNK         0.4908 
     56 O          30.7036  -51.2692  -55.1576 O.2       3 UNK        -0.5102 
     57 CA         32.6694  -51.1901  -53.8065 C.3       3 UNK         0.0241 
     58 CB         33.7777  -52.0884  -54.3774 C.3       3 UNK        -0.1971 
     59 N          33.2667  -50.1196  -53.0066 N.am      3 UNK        -0.4139 
     60 C          32.5765  -49.2031  -52.3144 C.2       2 UNK         0.5016 
     61 O          31.3472  -49.1765  -52.2602 O.2       2 UNK        -0.5319 
     62 CA         33.3822  -48.1088  -51.5912 C.3       2 UNK         0.0286 
     63 CB         34.8492  -48.5050  -51.3103 C.3       2 UNK        -0.1963 
     64 N          33.3421  -46.8131  -52.2839 N.am      2 UNK        -0.4790 
     65 C          33.6556  -46.5533  -53.5614 C.2       1 UNK         0.5024 
     66 O          33.8920  -47.4328  -54.3983 O.2       1 UNK        -0.4888 
     67 H67        34.5116  -43.9686  -58.2607 H         1 UNK         0.0892 
     68 H68        36.1508  -43.8703  -57.6104 H         1 UNK         0.0892 
     69 H69        35.3010  -45.4175  -57.6359 H         1 UNK         0.0892 
     70 H70        34.5330  -46.0042  -55.6278 H         1 UNK         0.3107 
     71 H71        32.7177  -44.7015  -54.0956 H         1 UNK         0.0773 
     72 H72        35.3978  -44.6831  -52.5873 H         1 UNK         0.0680 
     73 H73        34.8441  -43.2515  -53.3795 H         1 UNK         0.0680 
     74 H74        33.4798  -41.5148  -52.4800 H         1 UNK         0.0650 
     75 H75        32.4033  -41.6066  -51.1095 H         1 UNK         0.0650 
     76 H76        30.3288  -43.2502  -51.3603 H         1 UNK         0.1397 
     77 H77        28.4794  -42.9734  -55.2172 H         1 UNK         0.1363 
     78 H78        32.4705  -41.5341  -54.6599 H         1 UNK         0.1355 
     79 H79        29.4991  -41.6652  -56.9407 H         1 UNK         0.0707 
     80 H80        30.9971  -40.8233  -56.6475 H         1 UNK         0.0707 
     81 H81        31.1718  -45.3752  -57.5708 H         1 UNK         0.1034 
     82 H82        30.3280  -44.6660  -56.2485 H         1 UNK         0.1034 
     83 H83        28.8205  -43.6468  -58.3109 H         1 UNK         0.0482 
     84 H84        27.5124  -46.1696  -59.5783 H         1 UNK         0.3460 
     85 H85        28.5129  -46.3928  -60.9944 H         1 UNK         0.3460 
     86 H86        28.2930  -46.3634  -57.2314 H         1 UNK         0.2989 
     87 H87        26.2834  -45.8365  -55.1810 H         1 UNK         0.0559 
     88 H88        24.4592  -44.3055  -55.7839 H         1 UNK         0.0848 
     89 H89        23.8595  -45.9537  -55.7761 H         1 UNK         0.0848 
     90 H90        24.1970  -45.1439  -57.3058 H         1 UNK         0.0848 
     91 H91        26.2125  -47.8891  -56.0276 H         1 UNK         0.3144 
     92 H92        24.9142  -49.3750  -58.3648 H         1 UNK         0.0727 
     93 H93        27.6056  -49.0065  -59.7873 H         1 UNK         0.0790 
     94 H94        26.0182  -48.7985  -60.5182 H         1 UNK         0.0790 
     95 H95        26.5299  -50.3880  -59.9917 H         1 UNK         0.0790 
     96 H96        27.5466  -49.4639  -56.9888 H         1 UNK         0.3215 
     97 H97        26.8803  -52.8962  -55.9870 H         1 UNK         0.0863 
     98 H98        29.2413  -53.0541  -56.6718 H         1 UNK         0.0808 
     99 H99        29.1492  -51.4972  -57.4933 H         1 UNK         0.0808 
    100 H100       28.2245  -52.8680  -58.0904 H         1 UNK         0.0808 
    101 H101       28.8507  -51.0591  -55.0560 H         1 UNK         0.3118 
    102 H102       27.0413  -50.1569  -52.0758 H         1 UNK         0.0546 
    103 H103       29.1535  -51.0386  -51.1193 H         1 UNK         0.0828 
    104 H104       29.5398  -51.8415  -52.6390 H         1 UNK         0.0828 
    105 H105       28.1504  -52.3612  -51.6951 H         1 UNK         0.0828 
    106 H106       29.6028  -49.3317  -52.9032 H         1 UNK         0.3005 
    107 H107       28.6036  -46.3955  -54.7204 H         1 UNK         0.1257 
    108 H108       30.3902  -45.5849  -53.1838 H         1 UNK         0.0775 
    109 H109       30.1895  -46.9703  -52.1769 H         1 UNK         0.0775 
    110 H110       27.3447  -44.1381  -53.5372 H         1 UNK         0.0840 
    111 H111       27.4894  -43.2467  -52.0453 H         1 UNK         0.0840 
    112 H112       31.0779  -47.8562  -54.3357 H         1 UNK         0.2987 
    113 H113       30.9697  -49.7114  -57.3072 H         1 UNK         0.0785 
    114 H114       31.6748  -47.5638  -58.2958 H         1 UNK         0.0798 
    115 H115       33.0847  -48.5170  -57.8754 H         1 UNK         0.0798 
    116 H116       32.6087  -47.1622  -56.8550 H         1 UNK         0.0798 
    117 H117       32.9877  -49.0955  -55.2987 H         1 UNK         0.3079 
    118 H118       32.0534  -51.7932  -53.1363 H         1 UNK         0.0794 
    119 H119       33.3538  -52.9057  -54.9630 H         1 UNK         0.0786 
    120 H120       34.3735  -52.5376  -53.5826 H         1 UNK         0.0786 
    121 H121       34.4520  -51.5341  -55.0316 H         1 UNK         0.0786 
    122 H122       34.2734  -50.0451  -53.0209 H         1 UNK         0.3032 
    123 H123       32.8898  -47.9655  -50.6277 H         1 UNK         0.1094 
    124 H124       35.3337  -47.7663  -50.6715 H         1 UNK         0.0794 
    125 H125       34.9088  -49.4616  -50.7889 H         1 UNK         0.0794 
    126 H126       35.4420  -48.5828  -52.2225 H         1 UNK         0.0794 
    127 H127       33.1459  -46.0134  -51.6935 H         1 UNK         0.3016 
@<TRIPOS>BOND
     1    1    2 1    
     2    1   67 1    
     3    1   68 1    
     4    1   69 1    
     5    2    3 2    
     6    2    4 am   BACKBONE|DICT|INTERRES
     7    4    5 1    
     8    4   70 1    
     9    5    6 1    
    10    5   65 1    
    11    5   71 1    
    12    6    7 1    
    13    6   72 1    
    14    6   73 1    
    15    7    8 1    
    16    8    9 1    
    17    8   74 1    
    18    8   75 1    
    19    9   10 ar   
    20    9   14 ar   
    21   10   11 ar   
    22   10   76 1    
    23   11   12 ar   
    24   11   48 1    
    25   12   13 ar   
    26   12   77 1    
    27   13   14 ar   
    28   13   15 1    
    29   14   78 1    
    30   15   16 1    
    31   15   79 1    
    32   15   80 1    
    33   16   17 1    
    34   17   18 1    
    35   17   81 1    
    36   17   82 1    
    37   18   19 1    
    38   18   22 1    
    39   18   83 1    
    40   19   20 am   BACKBONE|DICT|INTERRES
    41   19   21 2    
    42   20   84 1    
    43   20   85 1    
    44   22   23 am   BACKBONE|DICT|INTERRES
    45   22   86 1    
    46   23   24 2    
    47   23   25 1    
    48   25   26 1    
    49   25   27 1    
    50   25   87 1    
    51   26   88 1    
    52   26   89 1    
    53   26   90 1    
    54   27   28 am   BACKBONE|DICT|INTERRES
    55   27   91 1    
    56   28   29 2    
    57   28   30 1    
    58   30   31 1    
    59   30   32 1    
    60   30   92 1    
    61   31   93 1    
    62   31   94 1    
    63   31   95 1    
    64   32   33 am   BACKBONE|DICT|INTERRES
    65   32   96 1    
    66   33   34 2    
    67   33   35 1    
    68   35   36 1    
    69   35   37 1    
    70   35   97 1    
    71   36   98 1    
    72   36   99 1    
    73   36  100 1    
    74   37   38 am   BACKBONE|DICT|INTERRES
    75   37  101 1    
    76   38   39 2    
    77   38   40 1    
    78   40   41 1    
    79   40   42 1    
    80   40  102 1    
    81   41  103 1    
    82   41  104 1    
    83   41  105 1    
    84   42   43 am   BACKBONE|DICT|INTERRES
    85   42  106 1    
    86   43   44 2    
    87   43   45 1    
    88   45   46 1    
    89   45   49 1    
    90   45  107 1    
    91   46   47 1    
    92   46  108 1    
    93   46  109 1    
    94   47   48 1    
    95   48  110 1    
    96   48  111 1    
    97   49   50 am   BACKBONE|DICT|INTERRES
    98   49  112 1    
    99   50   51 2    
   100   50   52 1    
   101   52   53 1    
   102   52   54 1    
   103   52  113 1    
   104   53  114 1    
   105   53  115 1    
   106   53  116 1    
   107   54   55 am   BACKBONE|DICT|INTERRES
   108   54  117 1    
   109   55   56 2    
   110   55   57 1    
   111   57   58 1    
   112   57   59 1    
   113   57  118 1    
   114   58  119 1    
   115   58  120 1    
   116   58  121 1    
   117   59   60 am   BACKBONE|DICT|INTERRES
   118   59  122 1    
   119   60   61 2    
   120   60   62 1    
   121   62   63 1    
   122   62   64 1    
   123   62  123 1    
   124   63  124 1    
   125   63  125 1    
   126   63  126 1    
   127   64   65 am   BACKBONE|DICT|INTERRES
   128   64  127 1    
   129   65   66 2    
@<TRIPOS>SUBSTRUCTURE
     1 UNK         1 GROUP             0       ****    0 ROOT    
