@<TRIPOS>MOLECULE
3R134
127   129    1
SMALL
USER_CHARGES


@<TRIPOS>ATOM
      1 CA         31.0029  -42.9613  -58.1265 C.3       0 UNK        -0.1968 
      2 C          31.5346  -43.8846  -57.0412 C.2       0 UNK         0.4852 
      3 O          30.8718  -44.8622  -56.6907 O.2       0 UNK        -0.5359 
      4 N          32.7164  -43.5657  -56.5030 N.am      1 UNK        -0.4300 
      5 CA         33.4146  -44.3352  -55.4705 C.3       1 UNK         0.0863 
      6 C6         34.5147  -43.4981  -54.7613 C.3       11 UNK        -0.0953 
      7 S7         33.9993  -41.7949  -54.3383 S.3       11 UNK        -0.2369 
      8 C8         33.6695  -41.8980  -52.5543 C.3       11 UNK         0.0226 
      9 C9         32.3863  -42.6540  -52.2417 C.ar      11 UNK        -0.0699 
     10 C10        32.4422  -43.8822  -51.5775 C.ar      11 UNK        -0.0804 
     11 C11        31.2669  -44.5526  -51.2294 C.ar      11 UNK        -0.0871 
     12 C12        30.0313  -43.9785  -51.5411 C.ar      11 UNK        -0.1008 
     13 C13        29.9584  -42.7774  -52.2515 C.ar      11 UNK        -0.0735 
     14 C14        31.1424  -42.1120  -52.5867 C.ar      11 UNK        -0.0945 
     15 C15        28.6041  -42.1939  -52.6442 C.3       11 UNK         0.0169 
     16 S16        27.4821  -43.4312  -53.3847 S.3       11 UNK        -0.2669 
     17 C17        28.3463  -43.8285  -54.9431 C.3       11 UNK        -0.0850 
     18 CA         27.3848  -43.9443  -56.1582 C.3       10 UNK         0.0855 
     19 C          27.0154  -42.5518  -56.7596 C.2       10 UNK         0.5543 
     20 N          27.2753  -42.2850  -58.0342 N.am      10 UNK        -0.7343 
     21 O          26.4698  -41.6985  -56.0654 O.2       10 UNK        -0.5027 
     22 N          27.8848  -44.9281  -57.1372 N.am      10 UNK        -0.4495 
     23 C          27.1147  -45.5575  -58.0366 C.2       10 UNK         0.4903 
     24 O          25.8940  -45.4169  -58.1108 O.2       10 UNK        -0.4860 
     25 CA         27.8119  -46.4923  -59.0320 C.3       9 UNK         0.0227 
     26 CB         29.1095  -45.9037  -59.6208 C.3       9 UNK        -0.1964 
     27 N          28.0658  -47.7856  -58.4054 N.am      9 UNK        -0.4231 
     28 C          28.2131  -48.9395  -59.0680 C.2       9 UNK         0.5014 
     29 O          28.1494  -49.0403  -60.2947 O.2       9 UNK        -0.5270 
     30 CA         28.4805  -50.2009  -58.2302 C.3       8 UNK         0.0284 
     31 CB         29.9539  -50.2644  -57.7971 C.3       8 UNK        -0.1977 
     32 N          27.6257  -50.3070  -57.0483 N.am      8 UNK        -0.4342 
     33 C          26.2991  -50.4959  -57.0616 C.2       8 UNK         0.5039 
     34 O          25.6293  -50.6136  -58.0884 O.2       8 UNK        -0.5547 
     35 CA         25.6018  -50.5720  -55.6947 C.3       7 UNK         0.0281 
     36 CB         25.7270  -51.9827  -55.0951 C.3       7 UNK        -0.1963 
     37 N          26.1605  -49.5890  -54.7653 N.am      7 UNK        -0.4444 
     38 C          25.7280  -48.3252  -54.6617 C.2       7 UNK         0.5104 
     39 O          24.7423  -47.8894  -55.2572 O.2       7 UNK        -0.5100 
     40 CA         26.5194  -47.3767  -53.7419 C.3       6 UNK         0.0396 
     41 CB         25.8325  -47.2477  -52.3739 C.3       6 UNK        -0.1801 
     42 N          27.9213  -47.7517  -53.5398 N.am      6 UNK        -0.4747 
     43 C          28.8566  -47.7562  -54.4974 C.2       6 UNK         0.5012 
     44 O          28.6206  -47.5396  -55.6842 O.2       6 UNK        -0.5003 
     45 CA         30.2974  -48.0855  -54.0638 C.3       5 UNK         0.0782 
     46 C46        30.8626  -47.0027  -53.1077 C.3       11 UNK        -0.0868 
     47 S47        30.3040  -47.1658  -51.3710 S.3       11 UNK        -0.2515 
     48 C48        31.3343  -45.9102  -50.5413 C.3       11 UNK         0.0199 
     49 N          30.5224  -49.4417  -53.5437 N.am      5 UNK        -0.4607 
     50 C          29.8973  -50.5922  -53.8338 C.2       4 UNK         0.5031 
     51 O          28.8995  -50.6852  -54.5495 O.2       4 UNK        -0.5119 
     52 CA         30.5239  -51.8601  -53.2146 C.3       4 UNK         0.0263 
     53 CB         29.9271  -53.1662  -53.7830 C.3       4 UNK        -0.1967 
     54 N          31.9928  -51.8507  -53.3141 N.am      4 UNK        -0.4237 
     55 C          32.7121  -51.8052  -54.4461 C.2       3 UNK         0.4908 
     56 O          32.2416  -51.9290  -55.5787 O.2       3 UNK        -0.5102 
     57 CA         34.2157  -51.5153  -54.2980 C.3       3 UNK         0.0241 
     58 CB         35.0595  -52.7256  -54.7306 C.3       3 UNK        -0.1971 
     59 N          34.5623  -50.3527  -55.1199 N.am      3 UNK        -0.4139 
     60 C          34.1477  -49.1073  -54.8514 C.2       2 UNK         0.5016 
     61 O          33.6275  -48.7790  -53.7818 O.2       2 UNK        -0.5319 
     62 CA         34.2883  -48.0719  -55.9758 C.3       2 UNK         0.0286 
     63 CB         33.4375  -48.4799  -57.2005 C.3       2 UNK        -0.1963 
     64 N          33.8545  -46.7643  -55.4779 N.am      2 UNK        -0.4790 
     65 C          34.0240  -45.5995  -56.1129 C.2       1 UNK         0.5024 
     66 O          34.6480  -45.4913  -57.1720 O.2       1 UNK        -0.4888 
     67 H67        31.6840  -42.1344  -58.3267 H         1 UNK         0.0892 
     68 H68        30.0463  -42.5404  -57.8231 H         1 UNK         0.0892 
     69 H69        30.8617  -43.5117  -59.0554 H         1 UNK         0.0892 
     70 H70        33.2158  -42.7558  -56.8401 H         1 UNK         0.3107 
     71 H71        32.6772  -44.6348  -54.7221 H         1 UNK         0.0773 
     72 H72        35.3950  -43.4013  -55.4004 H         1 UNK         0.0680 
     73 H73        34.8555  -44.0110  -53.8603 H         1 UNK         0.0680 
     74 H74        34.5276  -42.3479  -52.0525 H         1 UNK         0.0650 
     75 H75        33.5844  -40.8850  -52.1589 H         1 UNK         0.0650 
     76 H76        33.4019  -44.3121  -51.3250 H         1 UNK         0.1397 
     77 H77        29.1206  -44.4940  -51.2681 H         1 UNK         0.1363 
     78 H78        31.1012  -41.1686  -53.1140 H         1 UNK         0.1355 
     79 H79        28.7237  -41.3643  -53.3429 H         1 UNK         0.0707 
     80 H80        28.1309  -41.7821  -51.7521 H         1 UNK         0.0707 
     81 H81        28.8569  -44.7768  -54.7743 H         1 UNK         0.1034 
     82 H82        29.1394  -43.1045  -55.1381 H         1 UNK         0.1034 
     83 H83        26.4441  -44.3537  -55.7847 H         1 UNK         0.0482 
     84 H84        27.6912  -42.9828  -58.6275 H         1 UNK         0.3460 
     85 H85        27.0219  -41.3851  -58.4104 H         1 UNK         0.3460 
     86 H86        28.8838  -45.1106  -57.1138 H         1 UNK         0.2989 
     87 H87        27.1106  -46.6388  -59.8565 H         1 UNK         0.0559 
     88 H88        28.9614  -44.8777  -59.9590 H         1 UNK         0.0848 
     89 H89        29.4423  -46.4790  -60.4847 H         1 UNK         0.0848 
     90 H90        29.9233  -45.9077  -58.8968 H         1 UNK         0.0848 
     91 H91        28.1510  -47.7793  -57.3873 H         1 UNK         0.3144 
     92 H92        28.2769  -51.0668  -58.8635 H         1 UNK         0.0727 
     93 H93        30.2016  -49.4615  -57.1030 H         1 UNK         0.0790 
     94 H94        30.6223  -50.1770  -58.6546 H         1 UNK         0.0790 
     95 H95        30.1805  -51.2097  -57.3033 H         1 UNK         0.0790 
     96 H96        28.0961  -50.2816  -56.1453 H         1 UNK         0.3215 
     97 H97        24.5396  -50.3677  -55.8477 H         1 UNK         0.0863 
     98 H98        25.2062  -52.0544  -54.1402 H         1 UNK         0.0808 
     99 H99        26.7668  -52.2675  -54.9317 H         1 UNK         0.0808 
    100 H100       25.2876  -52.7269  -55.7606 H         1 UNK         0.0808 
    101 H101       27.0182  -49.8480  -54.2901 H         1 UNK         0.3118 
    102 H102       26.5116  -46.3933  -54.2163 H         1 UNK         0.0546 
    103 H103       25.8367  -48.1924  -51.8291 H         1 UNK         0.0828 
    104 H104       24.7920  -46.9401  -52.4871 H         1 UNK         0.0828 
    105 H105       26.3237  -46.4971  -51.7541 H         1 UNK         0.0828 
    106 H106       28.2178  -47.9411  -52.5917 H         1 UNK         0.3005 
    107 H107       30.8883  -48.0320  -54.9802 H         1 UNK         0.1257 
    108 H108       30.6192  -46.0048  -53.4778 H         1 UNK         0.0775 
    109 H109       31.9500  -47.0433  -53.0993 H         1 UNK         0.0775 
    110 H110       32.3617  -46.2758  -50.5034 H         1 UNK         0.0840 
    111 H111       31.0038  -45.8040  -49.5074 H         1 UNK         0.0840 
    112 H112       31.3385  -49.5099  -52.9524 H         1 UNK         0.2987 
    113 H113       30.2853  -51.8274  -52.1505 H         1 UNK         0.0785 
    114 H114       30.3926  -54.0439  -53.3352 H         1 UNK         0.0798 
    115 H115       30.0505  -53.2344  -54.8643 H         1 UNK         0.0798 
    116 H116       28.8577  -53.2258  -53.5773 H         1 UNK         0.0798 
    117 H117       32.4851  -51.7461  -52.4371 H         1 UNK         0.3079 
    118 H118       34.4455  -51.2869  -53.2548 H         1 UNK         0.0794 
    119 H119       36.1255  -52.5264  -54.6193 H         1 UNK         0.0786 
    120 H120       34.8752  -52.9974  -55.7709 H         1 UNK         0.0786 
    121 H121       34.8276  -53.5992  -54.1199 H         1 UNK         0.0786 
    122 H122       34.9535  -50.5499  -56.0295 H         1 UNK         0.3032 
    123 H123       35.3426  -48.0160  -56.2560 H         1 UNK         0.1094 
    124 H124       33.5706  -47.7905  -58.0339 H         1 UNK         0.0794 
    125 H125       33.7053  -49.4703  -57.5697 H         1 UNK         0.0794 
    126 H126       32.3756  -48.5003  -56.9570 H         1 UNK         0.0794 
    127 H127       33.4077  -46.8033  -54.5702 H         1 UNK         0.3016 
@<TRIPOS>BOND
     1    1    2 1    
     2    1   67 1    
     3    1   68 1    
     4    1   69 1    
     5    2    3 2    
     6    2    4 am   BACKBONE|DICT|INTERRES
     7    4    5 1    
     8    4   70 1    
     9    5    6 1    
    10    5   65 1    
    11    5   71 1    
    12    6    7 1    
    13    6   72 1    
    14    6   73 1    
    15    7    8 1    
    16    8    9 1    
    17    8   74 1    
    18    8   75 1    
    19    9   10 ar   
    20    9   14 ar   
    21   10   11 ar   
    22   10   76 1    
    23   11   12 ar   
    24   11   48 1    
    25   12   13 ar   
    26   12   77 1    
    27   13   14 ar   
    28   13   15 1    
    29   14   78 1    
    30   15   16 1    
    31   15   79 1    
    32   15   80 1    
    33   16   17 1    
    34   17   18 1    
    35   17   81 1    
    36   17   82 1    
    37   18   19 1    
    38   18   22 1    
    39   18   83 1    
    40   19   20 am   BACKBONE|DICT|INTERRES
    41   19   21 2    
    42   20   84 1    
    43   20   85 1    
    44   22   23 am   BACKBONE|DICT|INTERRES
    45   22   86 1    
    46   23   24 2    
    47   23   25 1    
    48   25   26 1    
    49   25   27 1    
    50   25   87 1    
    51   26   88 1    
    52   26   89 1    
    53   26   90 1    
    54   27   28 am   BACKBONE|DICT|INTERRES
    55   27   91 1    
    56   28   29 2    
    57   28   30 1    
    58   30   31 1    
    59   30   32 1    
    60   30   92 1    
    61   31   93 1    
    62   31   94 1    
    63   31   95 1    
    64   32   33 am   BACKBONE|DICT|INTERRES
    65   32   96 1    
    66   33   34 2    
    67   33   35 1    
    68   35   36 1    
    69   35   37 1    
    70   35   97 1    
    71   36   98 1    
    72   36   99 1    
    73   36  100 1    
    74   37   38 am   BACKBONE|DICT|INTERRES
    75   37  101 1    
    76   38   39 2    
    77   38   40 1    
    78   40   41 1    
    79   40   42 1    
    80   40  102 1    
    81   41  103 1    
    82   41  104 1    
    83   41  105 1    
    84   42   43 am   BACKBONE|DICT|INTERRES
    85   42  106 1    
    86   43   44 2    
    87   43   45 1    
    88   45   46 1    
    89   45   49 1    
    90   45  107 1    
    91   46   47 1    
    92   46  108 1    
    93   46  109 1    
    94   47   48 1    
    95   48  110 1    
    96   48  111 1    
    97   49   50 am   BACKBONE|DICT|INTERRES
    98   49  112 1    
    99   50   51 2    
   100   50   52 1    
   101   52   53 1    
   102   52   54 1    
   103   52  113 1    
   104   53  114 1    
   105   53  115 1    
   106   53  116 1    
   107   54   55 am   BACKBONE|DICT|INTERRES
   108   54  117 1    
   109   55   56 2    
   110   55   57 1    
   111   57   58 1    
   112   57   59 1    
   113   57  118 1    
   114   58  119 1    
   115   58  120 1    
   116   58  121 1    
   117   59   60 am   BACKBONE|DICT|INTERRES
   118   59  122 1    
   119   60   61 2    
   120   60   62 1    
   121   62   63 1    
   122   62   64 1    
   123   62  123 1    
   124   63  124 1    
   125   63  125 1    
   126   63  126 1    
   127   64   65 am   BACKBONE|DICT|INTERRES
   128   64  127 1    
   129   65   66 2    
@<TRIPOS>SUBSTRUCTURE
     1 UNK         1 GROUP             0       ****    0 ROOT    
