@<TRIPOS>MOLECULE
3R134
127   129    1
SMALL
USER_CHARGES


@<TRIPOS>ATOM
      1 CA         38.3165  -46.4041  -51.8414 C.3       0 UNK        -0.1968 
      2 C          37.1198  -46.5843  -52.7635 C.2       0 UNK         0.4852 
      3 O          37.0260  -47.5997  -53.4543 O.2       0 UNK        -0.5359 
      4 N          36.1952  -45.6142  -52.7714 N.am      1 UNK        -0.4300 
      5 CA         34.9847  -45.6107  -53.6039 C.3       1 UNK         0.0863 
      6 C6         34.4664  -44.1720  -53.8505 C.3       11 UNK        -0.0953 
      7 S7         33.8419  -43.3259  -52.3538 S.3       11 UNK        -0.2369 
      8 C8         32.7156  -42.0836  -53.0680 C.3       11 UNK         0.0226 
      9 C9         31.4794  -42.7094  -53.7013 C.ar      11 UNK        -0.0699 
     10 C10        30.3999  -43.1062  -52.9049 C.ar      11 UNK        -0.0804 
     11 C11        29.2626  -43.6805  -53.4841 C.ar      11 UNK        -0.0871 
     12 C12        29.2108  -43.8492  -54.8722 C.ar      11 UNK        -0.1008 
     13 C13        30.2770  -43.4438  -55.6786 C.ar      11 UNK        -0.0735 
     14 C14        31.4061  -42.8710  -55.0886 C.ar      11 UNK        -0.0945 
     15 C15        30.1973  -43.6078  -57.1877 C.3       11 UNK         0.0169 
     16 S16        29.3139  -42.2039  -57.9327 S.3       11 UNK        -0.2669 
     17 C17        29.2763  -42.6709  -59.6945 C.3       11 UNK        -0.0850 
     18 CA         27.8623  -43.1268  -60.1641 C.3       10 UNK         0.0855 
     19 C          27.5699  -42.6713  -61.6176 C.2       10 UNK         0.5543 
     20 N          27.2246  -41.4062  -61.8100 N.am      10 UNK        -0.7343 
     21 O          27.6759  -43.4418  -62.5715 O.2       10 UNK        -0.5027 
     22 N          27.6904  -44.5803  -60.0662 N.am      10 UNK        -0.4495 
     23 C          27.2753  -45.2676  -58.9997 C.2       10 UNK         0.4903 
     24 O          26.9944  -44.7556  -57.9138 O.2       10 UNK        -0.4860 
     25 CA         27.1711  -46.7911  -59.1982 C.3       9 UNK         0.0227 
     26 CB         28.5331  -47.4084  -59.5646 C.3       9 UNK        -0.1964 
     27 N          26.6766  -47.4534  -57.9936 N.am      9 UNK        -0.4231 
     28 C          25.3876  -47.5837  -57.6554 C.2       9 UNK         0.5014 
     29 O          24.4512  -47.2018  -58.3616 O.2       9 UNK        -0.5270 
     30 CA         25.1091  -48.2635  -56.2995 C.3       8 UNK         0.0284 
     31 CB         23.6399  -48.7044  -56.1257 C.3       8 UNK        -0.1977 
     32 N          26.0305  -49.3730  -56.0254 N.am      8 UNK        -0.4342 
     33 C          26.1897  -50.5023  -56.7345 C.2       8 UNK         0.5039 
     34 O          25.4965  -50.8064  -57.7065 O.2       8 UNK        -0.5547 
     35 CA         27.3281  -51.4549  -56.3161 C.3       7 UNK         0.0281 
     36 CB         28.4358  -51.4606  -57.3832 C.3       7 UNK        -0.1963 
     37 N          27.9227  -51.1346  -55.0150 N.am      7 UNK        -0.4444 
     38 C          27.3316  -51.3517  -53.8321 C.2       7 UNK         0.5104 
     39 O          26.2465  -51.9188  -53.7023 O.2       7 UNK        -0.5100 
     40 CA         28.0528  -50.8098  -52.5858 C.3       6 UNK         0.0396 
     41 CB         29.0642  -51.8406  -52.0614 C.3       6 UNK        -0.1801 
     42 N          28.7296  -49.5285  -52.8159 N.am      6 UNK        -0.4747 
     43 C          28.1185  -48.3809  -53.1493 C.2       6 UNK         0.5012 
     44 O          26.9002  -48.2751  -53.2906 O.2       6 UNK        -0.5003 
     45 CA         29.0208  -47.1684  -53.4516 C.3       5 UNK         0.0782 
     46 C46        29.5925  -46.5103  -52.1713 C.3       11 UNK        -0.0868 
     47 S47        28.4661  -45.3392  -51.3424 S.3       11 UNK        -0.2515 
     48 C48        28.0725  -44.0957  -52.6244 C.3       11 UNK         0.0199 
     49 N          30.0911  -47.5070  -54.3870 N.am      5 UNK        -0.4607 
     50 C          29.9173  -47.9097  -55.6507 C.2       4 UNK         0.5031 
     51 O          28.8206  -47.9964  -56.2023 O.2       4 UNK        -0.5119 
     52 CA         31.1867  -48.3267  -56.4084 C.3       4 UNK         0.0263 
     53 CB         31.8784  -47.1016  -57.0310 C.3       4 UNK        -0.1967 
     54 N          32.1299  -49.0362  -55.5388 N.am      4 UNK        -0.4237 
     55 C          31.9146  -50.2519  -55.0142 C.2       3 UNK         0.4908 
     56 O          30.9177  -50.9338  -55.2516 O.2       3 UNK        -0.5102 
     57 CA         32.9693  -50.7742  -54.0229 C.3       3 UNK         0.0241 
     58 CB         34.2018  -51.3112  -54.7678 C.3       3 UNK        -0.1971 
     59 N          33.3828  -49.7593  -53.0491 N.am      3 UNK        -0.4139 
     60 C          32.5732  -49.2328  -52.1188 C.2       2 UNK         0.5016 
     61 O          31.4077  -49.5849  -51.9502 O.2       2 UNK        -0.5319 
     62 CA         33.1330  -48.0899  -51.2547 C.3       2 UNK         0.0286 
     63 CB         33.7862  -48.6512  -49.9822 C.3       2 UNK        -0.1963 
     64 N          34.0841  -47.2087  -51.9397 N.am      2 UNK        -0.4790 
     65 C          33.8700  -46.5534  -53.0917 C.2       1 UNK         0.5024 
     66 O          32.8378  -46.6746  -53.7517 O.2       1 UNK        -0.4888 
     67 H67        39.2390  -46.4028  -52.4214 H         1 UNK         0.0892 
     68 H68        38.2654  -45.4688  -51.2842 H         1 UNK         0.0892 
     69 H69        38.3655  -47.2237  -51.1250 H         1 UNK         0.0892 
     70 H70        36.3093  -44.8065  -52.1742 H         1 UNK         0.3107 
     71 H71        35.2676  -46.0074  -54.5815 H         1 UNK         0.0773 
     72 H72        35.2605  -43.5599  -54.2806 H         1 UNK         0.0680 
     73 H73        33.6833  -44.2037  -54.6069 H         1 UNK         0.0680 
     74 H74        33.2607  -41.4830  -53.7979 H         1 UNK         0.0650 
     75 H75        32.4081  -41.3962  -52.2787 H         1 UNK         0.0650 
     76 H76        30.4471  -42.9747  -51.8324 H         1 UNK         0.1397 
     77 H77        28.3338  -44.2806  -55.3369 H         1 UNK         0.1363 
     78 H78        32.2292  -42.5494  -55.7118 H         1 UNK         0.1355 
     79 H79        29.6869  -44.5400  -57.4309 H         1 UNK         0.0707 
     80 H80        31.1978  -43.6800  -57.6170 H         1 UNK         0.0707 
     81 H81        29.6102  -41.7864  -60.2412 H         1 UNK         0.1034 
     82 H82        30.0261  -43.4356  -59.9049 H         1 UNK         0.1034 
     83 H83        27.0980  -42.6537  -59.5435 H         1 UNK         0.0482 
     84 H84        27.1408  -40.7653  -61.0357 H         1 UNK         0.3460 
     85 H85        27.0385  -41.0855  -62.7476 H         1 UNK         0.3460 
     86 H86        27.8443  -45.0656  -60.9406 H         1 UNK         0.2989 
     87 H87        26.4755  -46.9789  -60.0188 H         1 UNK         0.0559 
     88 H88        29.2856  -47.1897  -58.8091 H         1 UNK         0.0848 
     89 H89        28.9051  -47.0283  -60.5164 H         1 UNK         0.0848 
     90 H90        28.4636  -48.4924  -59.6593 H         1 UNK         0.0848 
     91 H91        27.3852  -47.7358  -57.3179 H         1 UNK         0.3144 
     92 H92        25.3158  -47.5083  -55.5397 H         1 UNK         0.0727 
     93 H93        23.4782  -49.1664  -55.1517 H         1 UNK         0.0790 
     94 H94        23.3372  -49.4190  -56.8915 H         1 UNK         0.0790 
     95 H95        22.9656  -47.8500  -56.1946 H         1 UNK         0.0790 
     96 H96        26.6589  -49.2183  -55.2455 H         1 UNK         0.3215 
     97 H97        26.9041  -52.4597  -56.2596 H         1 UNK         0.0863 
     98 H98        28.8935  -50.4772  -57.4922 H         1 UNK         0.0808 
     99 H99        28.0393  -51.7447  -58.3589 H         1 UNK         0.0808 
    100 H100       29.2237  -52.1720  -57.1352 H         1 UNK         0.0808 
    101 H101       28.8535  -50.7292  -55.0255 H         1 UNK         0.3118 
    102 H102       27.2993  -50.6490  -51.8122 H         1 UNK         0.0546 
    103 H103       29.5128  -51.5132  -51.1234 H         1 UNK         0.0828 
    104 H104       29.8713  -52.0116  -52.7749 H         1 UNK         0.0828 
    105 H105       28.5836  -52.8014  -51.8729 H         1 UNK         0.0828 
    106 H106       29.7400  -49.5240  -52.6776 H         1 UNK         0.3005 
    107 H107       28.3940  -46.4467  -53.9750 H         1 UNK         0.1257 
    108 H108       30.5026  -45.9556  -52.4057 H         1 UNK         0.0775 
    109 H109       29.8997  -47.2643  -51.4449 H         1 UNK         0.0775 
    110 H110       27.2632  -44.4822  -53.2458 H         1 UNK         0.0840 
    111 H111       27.6694  -43.2088  -52.1336 H         1 UNK         0.0840 
    112 H112       31.0420  -47.4055  -54.0460 H         1 UNK         0.2987 
    113 H113       30.8913  -49.0022  -57.2138 H         1 UNK         0.0785 
    114 H114       31.2156  -46.5841  -57.7233 H         1 UNK         0.0798 
    115 H115       32.1799  -46.3743  -56.2766 H         1 UNK         0.0798 
    116 H116       32.7670  -47.3905  -57.5923 H         1 UNK         0.0798 
    117 H117       32.9392  -48.5149  -55.2327 H         1 UNK         0.3079 
    118 H118       32.5189  -51.6020  -53.4708 H         1 UNK         0.0794 
    119 H119       33.9166  -52.0757  -55.4921 H         1 UNK         0.0786 
    120 H120       34.9120  -51.7693  -54.0791 H         1 UNK         0.0786 
    121 H121       34.7239  -50.5236  -55.3128 H         1 UNK         0.0786 
    122 H122       34.3272  -49.4067  -53.1163 H         1 UNK         0.3032 
    123 H123       32.2848  -47.4713  -50.9557 H         1 UNK         0.1094 
    124 H124       34.6731  -49.2436  -50.2104 H         1 UNK         0.0794 
    125 H125       34.0804  -47.8527  -49.3007 H         1 UNK         0.0794 
    126 H126       33.0933  -49.2967  -49.4400 H         1 UNK         0.0794 
    127 H127       34.9653  -47.0484  -51.4744 H         1 UNK         0.3016 
@<TRIPOS>BOND
     1    1    2 1    
     2    1   67 1    
     3    1   68 1    
     4    1   69 1    
     5    2    3 2    
     6    2    4 am   BACKBONE|DICT|INTERRES
     7    4    5 1    
     8    4   70 1    
     9    5    6 1    
    10    5   65 1    
    11    5   71 1    
    12    6    7 1    
    13    6   72 1    
    14    6   73 1    
    15    7    8 1    
    16    8    9 1    
    17    8   74 1    
    18    8   75 1    
    19    9   10 ar   
    20    9   14 ar   
    21   10   11 ar   
    22   10   76 1    
    23   11   12 ar   
    24   11   48 1    
    25   12   13 ar   
    26   12   77 1    
    27   13   14 ar   
    28   13   15 1    
    29   14   78 1    
    30   15   16 1    
    31   15   79 1    
    32   15   80 1    
    33   16   17 1    
    34   17   18 1    
    35   17   81 1    
    36   17   82 1    
    37   18   19 1    
    38   18   22 1    
    39   18   83 1    
    40   19   20 am   BACKBONE|DICT|INTERRES
    41   19   21 2    
    42   20   84 1    
    43   20   85 1    
    44   22   23 am   BACKBONE|DICT|INTERRES
    45   22   86 1    
    46   23   24 2    
    47   23   25 1    
    48   25   26 1    
    49   25   27 1    
    50   25   87 1    
    51   26   88 1    
    52   26   89 1    
    53   26   90 1    
    54   27   28 am   BACKBONE|DICT|INTERRES
    55   27   91 1    
    56   28   29 2    
    57   28   30 1    
    58   30   31 1    
    59   30   32 1    
    60   30   92 1    
    61   31   93 1    
    62   31   94 1    
    63   31   95 1    
    64   32   33 am   BACKBONE|DICT|INTERRES
    65   32   96 1    
    66   33   34 2    
    67   33   35 1    
    68   35   36 1    
    69   35   37 1    
    70   35   97 1    
    71   36   98 1    
    72   36   99 1    
    73   36  100 1    
    74   37   38 am   BACKBONE|DICT|INTERRES
    75   37  101 1    
    76   38   39 2    
    77   38   40 1    
    78   40   41 1    
    79   40   42 1    
    80   40  102 1    
    81   41  103 1    
    82   41  104 1    
    83   41  105 1    
    84   42   43 am   BACKBONE|DICT|INTERRES
    85   42  106 1    
    86   43   44 2    
    87   43   45 1    
    88   45   46 1    
    89   45   49 1    
    90   45  107 1    
    91   46   47 1    
    92   46  108 1    
    93   46  109 1    
    94   47   48 1    
    95   48  110 1    
    96   48  111 1    
    97   49   50 am   BACKBONE|DICT|INTERRES
    98   49  112 1    
    99   50   51 2    
   100   50   52 1    
   101   52   53 1    
   102   52   54 1    
   103   52  113 1    
   104   53  114 1    
   105   53  115 1    
   106   53  116 1    
   107   54   55 am   BACKBONE|DICT|INTERRES
   108   54  117 1    
   109   55   56 2    
   110   55   57 1    
   111   57   58 1    
   112   57   59 1    
   113   57  118 1    
   114   58  119 1    
   115   58  120 1    
   116   58  121 1    
   117   59   60 am   BACKBONE|DICT|INTERRES
   118   59  122 1    
   119   60   61 2    
   120   60   62 1    
   121   62   63 1    
   122   62   64 1    
   123   62  123 1    
   124   63  124 1    
   125   63  125 1    
   126   63  126 1    
   127   64   65 am   BACKBONE|DICT|INTERRES
   128   64  127 1    
   129   65   66 2    
@<TRIPOS>SUBSTRUCTURE
     1 UNK         1 GROUP             0       ****    0 ROOT    
