@<TRIPOS>MOLECULE
3R134
127   129    1
SMALL
USER_CHARGES


@<TRIPOS>ATOM
      1 CA         33.6185  -46.3699  -60.4357 C.3       0 UNK        -0.1968 
      2 C          33.3313  -47.0545  -59.1074 C.2       0 UNK         0.4852 
      3 O          32.8152  -48.1723  -59.0965 O.2       0 UNK        -0.5359 
      4 N          33.6550  -46.3893  -57.9906 N.am      1 UNK        -0.4300 
      5 CA         33.4901  -46.9036  -56.6299 C.3       1 UNK         0.0863 
      6 C6         33.6406  -45.7667  -55.5879 C.3       11 UNK        -0.0953 
      7 S7         33.1007  -46.2292  -53.9064 S.3       11 UNK        -0.2369 
      8 C8         32.9829  -44.5919  -53.1172 C.3       11 UNK         0.0226 
      9 C9         31.5751  -44.0135  -53.1892 C.ar      11 UNK        -0.0699 
     10 C10        30.6885  -44.2055  -52.1250 C.ar      11 UNK        -0.0804 
     11 C11        29.4024  -43.6545  -52.1567 C.ar      11 UNK        -0.0871 
     12 C12        29.0014  -42.9202  -53.2771 C.ar      11 UNK        -0.1008 
     13 C13        29.8807  -42.7070  -54.3436 C.ar      11 UNK        -0.0735 
     14 C14        31.1694  -43.2505  -54.2894 C.ar      11 UNK        -0.0945 
     15 C15        29.4452  -41.8583  -55.5328 C.3       11 UNK         0.0169 
     16 S16        29.4151  -42.8262  -57.0707 S.3       11 UNK        -0.2669 
     17 C17        28.2157  -41.9012  -58.0876 C.3       11 UNK        -0.0850 
     18 CA         26.7624  -42.4334  -57.9519 C.3       10 UNK         0.0855 
     19 C          25.7926  -41.6172  -58.8554 C.2       10 UNK         0.5543 
     20 N          25.1519  -42.2126  -59.8539 N.am      10 UNK        -0.7343 
     21 O          25.6187  -40.4198  -58.6421 O.2       10 UNK        -0.5027 
     22 N          26.6930  -43.8962  -58.1154 N.am      10 UNK        -0.4495 
     23 C          25.6838  -44.6794  -57.7190 C.2       10 UNK         0.4903 
     24 O          24.6412  -44.2519  -57.2229 O.2       10 UNK        -0.4860 
     25 CA         25.8695  -46.2006  -57.8682 C.3       9 UNK         0.0227 
     26 CB         25.5473  -46.6746  -59.2987 C.3       9 UNK        -0.1964 
     27 N          27.1742  -46.6910  -57.4022 N.am      9 UNK        -0.4231 
     28 C          28.3912  -46.5071  -57.9362 C.2       9 UNK         0.5014 
     29 O          28.6018  -45.8815  -58.9764 O.2       9 UNK        -0.5270 
     30 CA         29.5800  -47.0962  -57.1576 C.3       8 UNK         0.0284 
     31 CB         29.9941  -46.1475  -56.0213 C.3       8 UNK        -0.1977 
     32 N          29.3133  -48.4205  -56.5947 N.am      8 UNK        -0.4342 
     33 C          29.0800  -49.5323  -57.3071 C.2       8 UNK         0.5039 
     34 O          29.0672  -49.5786  -58.5373 O.2       8 UNK        -0.5547 
     35 CA         28.8027  -50.8113  -56.5023 C.3       7 UNK         0.0281 
     36 CB         30.1168  -51.4669  -56.0461 C.3       7 UNK        -0.1963 
     37 N          27.9563  -50.5340  -55.3409 N.am      7 UNK        -0.4444 
     38 C          26.6284  -50.3597  -55.4056 C.2       7 UNK         0.5104 
     39 O          25.9624  -50.5204  -56.4284 O.2       7 UNK        -0.5100 
     40 CA         25.9227  -49.9113  -54.1134 C.3       6 UNK         0.0396 
     41 CB         25.4606  -51.1317  -53.3016 C.3       6 UNK        -0.1801 
     42 N          26.7559  -49.0513  -53.2682 N.am      6 UNK        -0.4747 
     43 C          27.1668  -47.8172  -53.5991 C.2       6 UNK         0.5012 
     44 O          26.8643  -47.2565  -54.6511 O.2       6 UNK        -0.5003 
     45 CA         28.1074  -47.1110  -52.6037 C.3       5 UNK         0.0782 
     46 C46        27.2836  -46.2679  -51.6004 C.3       11 UNK        -0.0868 
     47 S47        28.3122  -45.4758  -50.3193 S.3       11 UNK        -0.2515 
     48 C48        28.4697  -43.7761  -50.9551 C.3       11 UNK         0.0199 
     49 N          29.0175  -48.0498  -51.9353 N.am      5 UNK        -0.4607 
     50 C          29.9633  -48.7658  -52.5517 C.2       4 UNK         0.5031 
     51 O          30.1327  -48.7808  -53.7738 O.2       4 UNK        -0.5119 
     52 CA         30.8511  -49.6344  -51.6623 C.3       4 UNK         0.0263 
     53 CB         30.5410  -51.1283  -51.8656 C.3       4 UNK        -0.1967 
     54 N          32.2365  -49.3510  -52.0114 N.am      4 UNK        -0.4237 
     55 C          33.2930  -49.5083  -51.2045 C.2       3 UNK         0.4908 
     56 O          33.2114  -49.9403  -50.0529 O.2       3 UNK        -0.5102 
     57 CA         34.6669  -49.0990  -51.7771 C.3       3 UNK         0.0241 
     58 CB         35.8519  -49.7509  -51.0319 C.3       3 UNK        -0.1971 
     59 N          34.7721  -49.3076  -53.2277 N.am      3 UNK        -0.4139 
     60 C          34.6960  -50.4697  -53.8966 C.2       2 UNK         0.5016 
     61 O          34.6004  -51.5717  -53.3546 O.2       2 UNK        -0.5319 
     62 CA         34.6826  -50.3682  -55.4336 C.3       2 UNK         0.0286 
     63 CB         34.0651  -51.6138  -56.0971 C.3       2 UNK        -0.1963 
     64 N          33.9310  -49.1836  -55.8589 N.am      2 UNK        -0.4790 
     65 C          34.4672  -48.0655  -56.3626 C.2       1 UNK         0.5024 
     66 O          35.6716  -47.9130  -56.5767 O.2       1 UNK        -0.4888 
     67 H67        34.3002  -46.9769  -61.0308 H         1 UNK         0.0892 
     68 H68        32.6941  -46.2433  -60.9988 H         1 UNK         0.0892 
     69 H69        34.0697  -45.3871  -60.3001 H         1 UNK         0.0892 
     70 H70        34.1074  -45.4896  -58.0661 H         1 UNK         0.3107 
     71 H71        32.4754  -47.2959  -56.5611 H         1 UNK         0.0773 
     72 H72        34.6720  -45.4114  -55.5417 H         1 UNK         0.0680 
     73 H73        33.0416  -44.9120  -55.9026 H         1 UNK         0.0680 
     74 H74        33.6984  -43.9048  -53.5714 H         1 UNK         0.0650 
     75 H75        33.2868  -44.6920  -52.0742 H         1 UNK         0.0650 
     76 H76        31.0076  -44.7696  -51.2592 H         1 UNK         0.1397 
     77 H77        28.0118  -42.4846  -53.3056 H         1 UNK         0.1363 
     78 H78        31.8537  -43.0761  -55.1075 H         1 UNK         0.1355 
     79 H79        28.4550  -41.4359  -55.3549 H         1 UNK         0.0707 
     80 H80        30.1266  -41.0147  -55.6505 H         1 UNK         0.0707 
     81 H81        28.2671  -40.8421  -57.8270 H         1 UNK         0.1034 
     82 H82        28.5434  -41.9699  -59.1266 H         1 UNK         0.1034 
     83 H83        26.4457  -42.2273  -56.9276 H         1 UNK         0.0482 
     84 H84        25.2885  -43.1950  -60.0291 H         1 UNK         0.3460 
     85 H85        24.5240  -41.6760  -60.4314 H         1 UNK         0.3460 
     86 H86        27.5139  -44.3482  -58.5081 H         1 UNK         0.2989 
     87 H87        25.1417  -46.6684  -57.2032 H         1 UNK         0.0559 
     88 H88        24.5281  -46.4029  -59.5762 H         1 UNK         0.0848 
     89 H89        25.6287  -47.7584  -59.3829 H         1 UNK         0.0848 
     90 H90        26.2122  -46.2304  -60.0398 H         1 UNK         0.0848 
     91 H91        27.1436  -47.1239  -56.4806 H         1 UNK         0.3144 
     92 H92        30.4179  -47.2025  -57.8490 H         1 UNK         0.0727 
     93 H93        29.1358  -45.7107  -55.5091 H         1 UNK         0.0790 
     94 H94        30.5912  -45.3263  -56.4140 H         1 UNK         0.0790 
     95 H95        30.5996  -46.6463  -55.2679 H         1 UNK         0.0790 
     96 H96        29.3677  -48.5024  -55.5841 H         1 UNK         0.3215 
     97 H97        28.2836  -51.5153  -57.1569 H         1 UNK         0.0863 
     98 H98        30.7433  -51.7125  -56.9047 H         1 UNK         0.0808 
     99 H99        29.9309  -52.3950  -55.5054 H         1 UNK         0.0808 
    100 H100       30.6980  -50.8114  -55.3976 H         1 UNK         0.0808 
    101 H101       28.4251  -50.3499  -54.4655 H         1 UNK         0.3118 
    102 H102       25.0381  -49.3396  -54.4024 H         1 UNK         0.0546 
    103 H103       26.3027  -51.7361  -52.9621 H         1 UNK         0.0828 
    104 H104       24.8178  -51.7776  -53.9015 H         1 UNK         0.0828 
    105 H105       24.8860  -50.8318  -52.4251 H         1 UNK         0.0828 
    106 H106       27.0527  -49.4304  -52.3803 H         1 UNK         0.3005 
    107 H107       28.7283  -46.4256  -53.1854 H         1 UNK         0.1257 
    108 H108       26.5511  -46.8932  -51.0858 H         1 UNK         0.0775 
    109 H109       26.7092  -45.5027  -52.1266 H         1 UNK         0.0775 
    110 H110       27.4763  -43.3878  -51.1856 H         1 UNK         0.0840 
    111 H111       28.8617  -43.1458  -50.1558 H         1 UNK         0.0840 
    112 H112       28.9512  -48.0805  -50.9280 H         1 UNK         0.2987 
    113 H113       30.6807  -49.3688  -50.6166 H         1 UNK         0.0785 
    114 H114       29.4966  -51.3473  -51.6400 H         1 UNK         0.0798 
    115 H115       31.1511  -51.7510  -51.2111 H         1 UNK         0.0798 
    116 H116       30.7296  -51.4433  -52.8926 H         1 UNK         0.0798 
    117 H117       32.3662  -48.9469  -52.9293 H         1 UNK         0.3079 
    118 H118       34.7403  -48.0212  -51.6236 H         1 UNK         0.0794 
    119 H119       36.8068  -49.4365  -51.4528 H         1 UNK         0.0786 
    120 H120       35.8083  -50.8396  -51.0736 H         1 UNK         0.0786 
    121 H121       35.8551  -49.4675  -49.9787 H         1 UNK         0.0786 
    122 H122       34.8423  -48.4642  -53.7803 H         1 UNK         0.3032 
    123 H123       35.7244  -50.2975  -55.7547 H         1 UNK         0.1094 
    124 H124       33.0534  -51.8028  -55.7381 H         1 UNK         0.0794 
    125 H125       34.0235  -51.5071  -57.1812 H         1 UNK         0.0794 
    126 H126       34.6574  -52.5046  -55.8834 H         1 UNK         0.0794 
    127 H127       32.9319  -49.2151  -55.7100 H         1 UNK         0.3016 
@<TRIPOS>BOND
     1    1    2 1    
     2    1   67 1    
     3    1   68 1    
     4    1   69 1    
     5    2    3 2    
     6    2    4 am   BACKBONE|DICT|INTERRES
     7    4    5 1    
     8    4   70 1    
     9    5    6 1    
    10    5   65 1    
    11    5   71 1    
    12    6    7 1    
    13    6   72 1    
    14    6   73 1    
    15    7    8 1    
    16    8    9 1    
    17    8   74 1    
    18    8   75 1    
    19    9   10 ar   
    20    9   14 ar   
    21   10   11 ar   
    22   10   76 1    
    23   11   12 ar   
    24   11   48 1    
    25   12   13 ar   
    26   12   77 1    
    27   13   14 ar   
    28   13   15 1    
    29   14   78 1    
    30   15   16 1    
    31   15   79 1    
    32   15   80 1    
    33   16   17 1    
    34   17   18 1    
    35   17   81 1    
    36   17   82 1    
    37   18   19 1    
    38   18   22 1    
    39   18   83 1    
    40   19   20 am   BACKBONE|DICT|INTERRES
    41   19   21 2    
    42   20   84 1    
    43   20   85 1    
    44   22   23 am   BACKBONE|DICT|INTERRES
    45   22   86 1    
    46   23   24 2    
    47   23   25 1    
    48   25   26 1    
    49   25   27 1    
    50   25   87 1    
    51   26   88 1    
    52   26   89 1    
    53   26   90 1    
    54   27   28 am   BACKBONE|DICT|INTERRES
    55   27   91 1    
    56   28   29 2    
    57   28   30 1    
    58   30   31 1    
    59   30   32 1    
    60   30   92 1    
    61   31   93 1    
    62   31   94 1    
    63   31   95 1    
    64   32   33 am   BACKBONE|DICT|INTERRES
    65   32   96 1    
    66   33   34 2    
    67   33   35 1    
    68   35   36 1    
    69   35   37 1    
    70   35   97 1    
    71   36   98 1    
    72   36   99 1    
    73   36  100 1    
    74   37   38 am   BACKBONE|DICT|INTERRES
    75   37  101 1    
    76   38   39 2    
    77   38   40 1    
    78   40   41 1    
    79   40   42 1    
    80   40  102 1    
    81   41  103 1    
    82   41  104 1    
    83   41  105 1    
    84   42   43 am   BACKBONE|DICT|INTERRES
    85   42  106 1    
    86   43   44 2    
    87   43   45 1    
    88   45   46 1    
    89   45   49 1    
    90   45  107 1    
    91   46   47 1    
    92   46  108 1    
    93   46  109 1    
    94   47   48 1    
    95   48  110 1    
    96   48  111 1    
    97   49   50 am   BACKBONE|DICT|INTERRES
    98   49  112 1    
    99   50   51 2    
   100   50   52 1    
   101   52   53 1    
   102   52   54 1    
   103   52  113 1    
   104   53  114 1    
   105   53  115 1    
   106   53  116 1    
   107   54   55 am   BACKBONE|DICT|INTERRES
   108   54  117 1    
   109   55   56 2    
   110   55   57 1    
   111   57   58 1    
   112   57   59 1    
   113   57  118 1    
   114   58  119 1    
   115   58  120 1    
   116   58  121 1    
   117   59   60 am   BACKBONE|DICT|INTERRES
   118   59  122 1    
   119   60   61 2    
   120   60   62 1    
   121   62   63 1    
   122   62   64 1    
   123   62  123 1    
   124   63  124 1    
   125   63  125 1    
   126   63  126 1    
   127   64   65 am   BACKBONE|DICT|INTERRES
   128   64  127 1    
   129   65   66 2    
@<TRIPOS>SUBSTRUCTURE
     1 UNK         1 GROUP             0       ****    0 ROOT    
