@<TRIPOS>MOLECULE
3R134
127   129    1
SMALL
USER_CHARGES


@<TRIPOS>ATOM
      1 CA         30.2639  -43.2391  -51.3910 C.3       0 UNK        -0.1968 
      2 C          31.5424  -43.9333  -50.9442 C.2       0 UNK         0.4852 
      3 O          31.7886  -44.0499  -49.7426 O.2       0 UNK        -0.5359 
      4 N          32.3582  -44.3884  -51.9027 N.am      1 UNK        -0.4300 
      5 CA         33.5873  -45.1492  -51.6681 C.3       1 UNK         0.0863 
      6 C6         34.4816  -45.1809  -52.9337 C.3       11 UNK        -0.0953 
      7 S7         35.4649  -43.6642  -53.1859 S.3       11 UNK        -0.2369 
      8 C8         34.2521  -42.4062  -53.7189 C.3       11 UNK         0.0226 
      9 C9         33.2952  -42.8517  -54.8217 C.ar      11 UNK        -0.0699 
     10 C10        33.7290  -43.6278  -55.9033 C.ar      11 UNK        -0.0804 
     11 C11        32.8295  -44.0368  -56.8926 C.ar      11 UNK        -0.0871 
     12 C12        31.4951  -43.6277  -56.8197 C.ar      11 UNK        -0.1008 
     13 C13        31.0505  -42.8497  -55.7481 C.ar      11 UNK        -0.0735 
     14 C14        31.9541  -42.4624  -54.7561 C.ar      11 UNK        -0.0945 
     15 C15        29.5918  -42.4368  -55.6590 C.3       11 UNK         0.0169 
     16 S16        28.5650  -43.8206  -55.0780 S.3       11 UNK        -0.2669 
     17 C17        26.9376  -43.0043  -54.9140 C.3       11 UNK        -0.0850 
     18 CA         26.0182  -43.1570  -56.1559 C.3       10 UNK         0.0855 
     19 C          26.3954  -42.1695  -57.2993 C.2       10 UNK         0.5543 
     20 N          26.7400  -42.6329  -58.4947 N.am      10 UNK        -0.7343 
     21 O          26.3660  -40.9583  -57.0967 O.2       10 UNK        -0.5027 
     22 N          25.8959  -44.5646  -56.5628 N.am      10 UNK        -0.4495 
     23 C          24.8697  -45.0885  -57.2430 C.2       10 UNK         0.4903 
     24 O          23.8754  -44.4472  -57.5840 O.2       10 UNK        -0.4860 
     25 CA         24.9650  -46.5781  -57.6205 C.3       9 UNK         0.0227 
     26 CB         25.3499  -46.7226  -59.1000 C.3       9 UNK        -0.1964 
     27 N          25.9043  -47.3485  -56.7962 N.am      9 UNK        -0.4231 
     28 C          25.7095  -47.6494  -55.5044 C.2       9 UNK         0.5014 
     29 O          24.7178  -47.2975  -54.8616 O.2       9 UNK        -0.5270 
     30 CA         26.8111  -48.4917  -54.8338 C.3       8 UNK         0.0284 
     31 CB         26.5439  -48.7582  -53.3373 C.3       8 UNK        -0.1977 
     32 N          27.0632  -49.7467  -55.5513 N.am      8 UNK        -0.4342 
     33 C          26.1976  -50.7312  -55.8343 C.2       8 UNK         0.5039 
     34 O          25.0211  -50.7556  -55.4679 O.2       8 UNK        -0.5547 
     35 CA         26.7710  -51.8824  -56.6835 C.3       7 UNK         0.0281 
     36 CB         25.7025  -52.8964  -57.1475 C.3       7 UNK        -0.1963 
     37 N          27.5680  -51.3843  -57.8134 N.am      7 UNK        -0.4444 
     38 C          27.1388  -50.6553  -58.8559 C.2       7 UNK         0.5104 
     39 O          25.9598  -50.3632  -59.0576 O.2       7 UNK        -0.5100 
     40 CA         28.2342  -50.1633  -59.8266 C.3       6 UNK         0.0396 
     41 CB         27.7284  -49.1319  -60.8558 C.3       6 UNK        -0.1801 
     42 N          29.4343  -49.6600  -59.1443 N.am      6 UNK        -0.4747 
     43 C          29.4988  -48.6792  -58.2290 C.2       6 UNK         0.5012 
     44 O          28.5264  -48.0314  -57.8305 O.2       6 UNK        -0.5003 
     45 CA         30.8963  -48.4002  -57.6339 C.3       5 UNK         0.0782 
     46 C46        31.3770  -46.9875  -58.0407 C.3       11 UNK        -0.0868 
     47 S47        33.1246  -46.6936  -57.6070 S.3       11 UNK        -0.2515 
     48 C48        33.3018  -44.9298  -58.0299 C.3       11 UNK         0.0199 
     49 N          30.9474  -48.5872  -56.1770 N.am      5 UNK        -0.4607 
     50 C          30.4755  -49.6300  -55.4799 C.2       4 UNK         0.5031 
     51 O          29.8573  -50.5726  -55.9791 O.2       4 UNK        -0.5119 
     52 CA         30.7500  -49.6080  -53.9651 C.3       4 UNK         0.0263 
     53 CB         30.1501  -50.8270  -53.2315 C.3       4 UNK        -0.1967 
     54 N          32.1782  -49.4754  -53.6511 N.am      4 UNK        -0.4237 
     55 C          33.1779  -50.2845  -54.0489 C.2       3 UNK         0.4908 
     56 O          33.0289  -51.2590  -54.7867 O.2       3 UNK        -0.5102 
     57 CA         34.5975  -49.9665  -53.5382 C.3       3 UNK         0.0241 
     58 CB         35.3815  -49.1864  -54.6074 C.3       3 UNK        -0.1971 
     59 N          34.6203  -49.2091  -52.2857 N.am      3 UNK        -0.4139 
     60 C          34.1485  -49.6306  -51.1030 C.2       2 UNK         0.5016 
     61 O          33.7578  -50.7787  -50.8903 O.2       2 UNK        -0.5319 
     62 CA         34.0674  -48.5840  -49.9728 C.3       2 UNK         0.0286 
     63 CB         35.1759  -48.8256  -48.9351 C.3       2 UNK        -0.1963 
     64 N          34.1358  -47.1879  -50.4312 N.am      2 UNK        -0.4790 
     65 C          33.2481  -46.5896  -51.2399 C.2       1 UNK         0.5024 
     66 O          32.2604  -47.1603  -51.7114 O.2       1 UNK        -0.4888 
     67 H67        30.0987  -43.3414  -52.4630 H         1 UNK         0.0892 
     68 H68        29.4039  -43.6692  -50.8784 H         1 UNK         0.0892 
     69 H69        30.3086  -42.1771  -51.1515 H         1 UNK         0.0892 
     70 H70        32.0907  -44.2890  -52.8715 H         1 UNK         0.3107 
     71 H71        34.1378  -44.6740  -50.8530 H         1 UNK         0.0773 
     72 H72        33.8961  -45.4111  -53.8248 H         1 UNK         0.0680 
     73 H73        35.2207  -45.9815  -52.8645 H         1 UNK         0.0680 
     74 H74        33.6958  -42.0823  -52.8381 H         1 UNK         0.0650 
     75 H75        34.7982  -41.5301  -54.0700 H         1 UNK         0.0650 
     76 H76        34.7641  -43.9350  -55.9636 H         1 UNK         0.1397 
     77 H77        30.7934  -43.9279  -57.5856 H         1 UNK         0.1363 
     78 H78        31.6108  -41.8537  -53.9306 H         1 UNK         0.1355 
     79 H79        29.2472  -42.1065  -56.6395 H         1 UNK         0.0707 
     80 H80        29.4759  -41.5866  -54.9849 H         1 UNK         0.0707 
     81 H81        27.0680  -41.9545  -54.6438 H         1 UNK         0.1034 
     82 H82        26.4408  -43.4559  -54.0539 H         1 UNK         0.1034 
     83 H83        25.0242  -42.8374  -55.8368 H         1 UNK         0.0482 
     84 H84        26.7641  -43.6240  -58.6680 H         1 UNK         0.3460 
     85 H85        26.9752  -41.9835  -59.2284 H         1 UNK         0.3460 
     86 H86        26.6843  -45.1537  -56.3381 H         1 UNK         0.2989 
     87 H87        23.9710  -47.0099  -57.4869 H         1 UNK         0.0559 
     88 H88        25.2937  -47.7627  -59.4197 H         1 UNK         0.0848 
     89 H89        26.3609  -46.3606  -59.2898 H         1 UNK         0.0848 
     90 H90        24.6733  -46.1552  -59.7407 H         1 UNK         0.0848 
     91 H91        26.7637  -47.6639  -57.2434 H         1 UNK         0.3144 
     92 H92        27.7290  -47.9057  -54.9041 H         1 UNK         0.0727 
     93 H93        27.3696  -49.2963  -52.8737 H         1 UNK         0.0790 
     94 H94        25.6354  -49.3419  -53.1853 H         1 UNK         0.0790 
     95 H95        26.4233  -47.8220  -52.7909 H         1 UNK         0.0790 
     96 H96        28.0039  -49.8626  -55.9160 H         1 UNK         0.3215 
     97 H97        27.4665  -52.4169  -56.0340 H         1 UNK         0.0863 
     98 H98        26.1456  -53.6985  -57.7374 H         1 UNK         0.0808 
     99 H99        24.9261  -52.4245  -57.7503 H         1 UNK         0.0808 
    100 H100       25.2090  -53.3583  -56.2916 H         1 UNK         0.0808 
    101 H101       28.5686  -51.5078  -57.7163 H         1 UNK         0.3118 
    102 H102       28.5471  -51.0470  -60.3847 H         1 UNK         0.0546 
    103 H103       27.4555  -48.1903  -60.3835 H         1 UNK         0.0828 
    104 H104       26.8510  -49.4995  -61.3894 H         1 UNK         0.0828 
    105 H105       28.4913  -48.9166  -61.6035 H         1 UNK         0.0828 
    106 H106       30.2902  -50.1434  -59.3818 H         1 UNK         0.3005 
    107 H107       31.5936  -49.1264  -58.0568 H         1 UNK         0.1257 
    108 H108       31.2737  -46.8376  -59.1175 H         1 UNK         0.0775 
    109 H109       30.7528  -46.2327  -57.5611 H         1 UNK         0.0775 
    110 H110       34.3512  -44.7259  -58.2480 H         1 UNK         0.0840 
    111 H111       32.7545  -44.7070  -58.9472 H         1 UNK         0.0840 
    112 H112       31.4447  -47.8665  -55.6749 H         1 UNK         0.2987 
    113 H113       30.2598  -48.7149  -53.5740 H         1 UNK         0.0785 
    114 H114       30.2982  -50.7517  -52.1542 H         1 UNK         0.0798 
    115 H115       30.5995  -51.7626  -53.5660 H         1 UNK         0.0798 
    116 H116       29.0771  -50.9051  -53.4077 H         1 UNK         0.0798 
    117 H117       32.4066  -48.7008  -53.0358 H         1 UNK         0.3079 
    118 H118       35.1033  -50.9180  -53.3610 H         1 UNK         0.0794 
    119 H119       35.4134  -49.7385  -55.5479 H         1 UNK         0.0786 
    120 H120       36.4135  -49.0160  -54.2999 H         1 UNK         0.0786 
    121 H121       34.9270  -48.2167  -54.8167 H         1 UNK         0.0786 
    122 H122       34.9501  -48.2578  -52.3399 H         1 UNK         0.3032 
    123 H123       33.1008  -48.7239  -49.4834 H         1 UNK         0.1094 
    124 H124       36.1687  -48.6792  -49.3624 H         1 UNK         0.0794 
    125 H125       35.0741  -48.1558  -48.0808 H         1 UNK         0.0794 
    126 H126       35.1348  -49.8454  -48.5493 H         1 UNK         0.0794 
    127 H127       34.9272  -46.6511  -50.1033 H         1 UNK         0.3016 
@<TRIPOS>BOND
     1    1    2 1    
     2    1   67 1    
     3    1   68 1    
     4    1   69 1    
     5    2    3 2    
     6    2    4 am   BACKBONE|DICT|INTERRES
     7    4    5 1    
     8    4   70 1    
     9    5    6 1    
    10    5   65 1    
    11    5   71 1    
    12    6    7 1    
    13    6   72 1    
    14    6   73 1    
    15    7    8 1    
    16    8    9 1    
    17    8   74 1    
    18    8   75 1    
    19    9   10 ar   
    20    9   14 ar   
    21   10   11 ar   
    22   10   76 1    
    23   11   12 ar   
    24   11   48 1    
    25   12   13 ar   
    26   12   77 1    
    27   13   14 ar   
    28   13   15 1    
    29   14   78 1    
    30   15   16 1    
    31   15   79 1    
    32   15   80 1    
    33   16   17 1    
    34   17   18 1    
    35   17   81 1    
    36   17   82 1    
    37   18   19 1    
    38   18   22 1    
    39   18   83 1    
    40   19   20 am   BACKBONE|DICT|INTERRES
    41   19   21 2    
    42   20   84 1    
    43   20   85 1    
    44   22   23 am   BACKBONE|DICT|INTERRES
    45   22   86 1    
    46   23   24 2    
    47   23   25 1    
    48   25   26 1    
    49   25   27 1    
    50   25   87 1    
    51   26   88 1    
    52   26   89 1    
    53   26   90 1    
    54   27   28 am   BACKBONE|DICT|INTERRES
    55   27   91 1    
    56   28   29 2    
    57   28   30 1    
    58   30   31 1    
    59   30   32 1    
    60   30   92 1    
    61   31   93 1    
    62   31   94 1    
    63   31   95 1    
    64   32   33 am   BACKBONE|DICT|INTERRES
    65   32   96 1    
    66   33   34 2    
    67   33   35 1    
    68   35   36 1    
    69   35   37 1    
    70   35   97 1    
    71   36   98 1    
    72   36   99 1    
    73   36  100 1    
    74   37   38 am   BACKBONE|DICT|INTERRES
    75   37  101 1    
    76   38   39 2    
    77   38   40 1    
    78   40   41 1    
    79   40   42 1    
    80   40  102 1    
    81   41  103 1    
    82   41  104 1    
    83   41  105 1    
    84   42   43 am   BACKBONE|DICT|INTERRES
    85   42  106 1    
    86   43   44 2    
    87   43   45 1    
    88   45   46 1    
    89   45   49 1    
    90   45  107 1    
    91   46   47 1    
    92   46  108 1    
    93   46  109 1    
    94   47   48 1    
    95   48  110 1    
    96   48  111 1    
    97   49   50 am   BACKBONE|DICT|INTERRES
    98   49  112 1    
    99   50   51 2    
   100   50   52 1    
   101   52   53 1    
   102   52   54 1    
   103   52  113 1    
   104   53  114 1    
   105   53  115 1    
   106   53  116 1    
   107   54   55 am   BACKBONE|DICT|INTERRES
   108   54  117 1    
   109   55   56 2    
   110   55   57 1    
   111   57   58 1    
   112   57   59 1    
   113   57  118 1    
   114   58  119 1    
   115   58  120 1    
   116   58  121 1    
   117   59   60 am   BACKBONE|DICT|INTERRES
   118   59  122 1    
   119   60   61 2    
   120   60   62 1    
   121   62   63 1    
   122   62   64 1    
   123   62  123 1    
   124   63  124 1    
   125   63  125 1    
   126   63  126 1    
   127   64   65 am   BACKBONE|DICT|INTERRES
   128   64  127 1    
   129   65   66 2    
@<TRIPOS>SUBSTRUCTURE
     1 UNK         1 GROUP             0       ****    0 ROOT    
