@<TRIPOS>MOLECULE
3R134
127   129    1
SMALL
USER_CHARGES


@<TRIPOS>ATOM
      1 CA         38.1877  -45.5772  -53.5245 C.3       0 UNK        -0.1968 
      2 C          36.6718  -45.7010  -53.5500 C.2       0 UNK         0.4852 
      3 O          36.1405  -46.5577  -54.2572 O.2       0 UNK        -0.5359 
      4 N          35.9720  -44.8655  -52.7713 N.am      1 UNK        -0.4300 
      5 CA         34.5067  -44.7783  -52.6697 C.3       1 UNK         0.0863 
      6 C6         34.0680  -43.3821  -52.1526 C.3       11 UNK        -0.0953 
      7 S7         34.6480  -42.0396  -53.2478 S.3       11 UNK        -0.2369 
      8 C8         33.0888  -41.3175  -53.8550 C.3       11 UNK         0.0226 
      9 C9         32.1740  -42.3350  -54.5262 C.ar      11 UNK        -0.0699 
     10 C10        32.6152  -43.0753  -55.6282 C.ar      11 UNK        -0.0804 
     11 C11        31.7709  -44.0054  -56.2418 C.ar      11 UNK        -0.0871 
     12 C12        30.4726  -44.1802  -55.7538 C.ar      11 UNK        -0.1008 
     13 C13        30.0087  -43.4281  -54.6695 C.ar      11 UNK        -0.0735 
     14 C14        30.8696  -42.5149  -54.0546 C.ar      11 UNK        -0.0945 
     15 C15        28.5762  -43.5861  -54.1723 C.3       11 UNK         0.0169 
     16 S16        27.3743  -43.2349  -55.4944 S.3       11 UNK        -0.2669 
     17 C17        25.7757  -43.3859  -54.6211 C.3       11 UNK        -0.0850 
     18 CA         24.9916  -44.6847  -54.9586 C.3       10 UNK         0.0855 
     19 C          23.5987  -44.6519  -54.2707 C.2       10 UNK         0.5543 
     20 N          23.4540  -45.3042  -53.1254 N.am      10 UNK        -0.7343 
     21 O          22.6710  -43.9949  -54.7397 O.2       10 UNK        -0.5027 
     22 N          24.9448  -44.9129  -56.4117 N.am      10 UNK        -0.4495 
     23 C          24.2885  -45.8763  -57.0725 C.2       10 UNK         0.4903 
     24 O          23.5259  -46.6941  -56.5570 O.2       10 UNK        -0.4860 
     25 CA         24.5846  -45.9808  -58.5733 C.3       9 UNK         0.0227 
     26 CB         24.9130  -44.6182  -59.2298 C.3       9 UNK        -0.1964 
     27 N          25.6830  -46.9319  -58.7489 N.am      9 UNK        -0.4231 
     28 C          26.0588  -47.4783  -59.9142 C.2       9 UNK         0.5014 
     29 O          25.4910  -47.2550  -60.9847 O.2       9 UNK        -0.5270 
     30 CA         27.2791  -48.4208  -59.9140 C.3       8 UNK         0.0284 
     31 CB         28.5365  -47.6603  -60.3661 C.3       8 UNK        -0.1977 
     32 N          27.5377  -49.0554  -58.6196 N.am      8 UNK        -0.4342 
     33 C          26.7833  -50.0338  -58.0951 C.2       8 UNK         0.5039 
     34 O          25.8338  -50.5470  -58.6889 O.2       8 UNK        -0.5547 
     35 CA         27.1200  -50.5288  -56.6720 C.3       7 UNK         0.0281 
     36 CB         27.8752  -51.8665  -56.7400 C.3       7 UNK        -0.1963 
     37 N          27.8901  -49.5899  -55.8493 N.am      7 UNK        -0.4444 
     38 C          27.5449  -48.3258  -55.5710 C.2       7 UNK         0.5104 
     39 O          26.4980  -47.8073  -55.9490 O.2       7 UNK        -0.5100 
     40 CA         28.5685  -47.4646  -54.8162 C.3       6 UNK         0.0396 
     41 CB         28.3223  -47.5285  -53.3027 C.3       6 UNK        -0.1801 
     42 N          29.9657  -47.8009  -55.1075 N.am      6 UNK        -0.4747 
     43 C          30.5320  -47.7863  -56.3255 C.2       6 UNK         0.5012 
     44 O          29.9216  -47.5305  -57.3638 O.2       6 UNK        -0.5003 
     45 CA         32.0217  -48.1639  -56.3838 C.3       5 UNK         0.0782 
     46 C46        32.9190  -47.0298  -55.8158 C.3       11 UNK        -0.0868 
     47 S47        33.6098  -45.9377  -57.1014 S.3       11 UNK        -0.2515 
     48 C48        32.2397  -44.7894  -57.4606 C.3       11 UNK         0.0199 
     49 N          32.2192  -49.4281  -55.6736 N.am      5 UNK        -0.4607 
     50 C          31.9293  -50.6365  -56.1755 C.2       4 UNK         0.5031 
     51 O          31.5876  -50.8257  -57.3424 O.2       4 UNK        -0.5119 
     52 CA         32.0194  -51.8404  -55.2180 C.3       4 UNK         0.0263 
     53 CB         33.3806  -52.5393  -55.3634 C.3       4 UNK        -0.1967 
     54 N          31.8072  -51.4867  -53.8114 N.am      4 UNK        -0.4237 
     55 C          30.6485  -51.0458  -53.2993 C.2       3 UNK         0.4908 
     56 O          29.6071  -50.9523  -53.9470 O.2       3 UNK        -0.5102 
     57 CA         30.6717  -50.5709  -51.8339 C.3       3 UNK         0.0241 
     58 CB         30.3747  -51.7424  -50.8846 C.3       3 UNK        -0.1971 
     59 N          31.9306  -49.9241  -51.4406 N.am      3 UNK        -0.4139 
     60 C          32.4643  -48.8517  -52.0435 C.2       2 UNK         0.5016 
     61 O          31.9326  -48.2729  -52.9950 O.2       2 UNK        -0.5319 
     62 CA         33.8526  -48.4153  -51.5467 C.3       2 UNK         0.0286 
     63 CB         34.9044  -49.4956  -51.8585 C.3       2 UNK        -0.1963 
     64 N          34.2881  -47.1707  -52.1780 N.am      2 UNK        -0.4790 
     65 C          33.9207  -45.9350  -51.8231 C.2       1 UNK         0.5024 
     66 O          33.1884  -45.6989  -50.8599 O.2       1 UNK        -0.4888 
     67 H67        38.5215  -44.7808  -52.8596 H         1 UNK         0.0892 
     68 H68        38.6344  -46.5118  -53.1865 H         1 UNK         0.0892 
     69 H69        38.5620  -45.3624  -54.5251 H         1 UNK         0.0892 
     70 H70        36.4733  -44.1989  -52.2018 H         1 UNK         0.3107 
     71 H71        34.0919  -44.8998  -53.6732 H         1 UNK         0.0773 
     72 H72        34.4645  -43.2010  -51.1520 H         1 UNK         0.0680 
     73 H73        32.9820  -43.3281  -52.0603 H         1 UNK         0.0680 
     74 H74        33.3232  -40.5281  -54.5701 H         1 UNK         0.0650 
     75 H75        32.5840  -40.8332  -53.0177 H         1 UNK         0.0650 
     76 H76        33.6188  -42.9312  -56.0049 H         1 UNK         0.1397 
     77 H77        29.8064  -44.8801  -56.2384 H         1 UNK         0.1363 
     78 H78        30.5192  -41.9323  -53.2135 H         1 UNK         0.1355 
     79 H79        28.4281  -44.5955  -53.7912 H         1 UNK         0.0707 
     80 H80        28.3855  -42.9105  -53.3370 H         1 UNK         0.0707 
     81 H81        25.9412  -43.3132  -53.5445 H         1 UNK         0.1034 
     82 H82        25.1819  -42.5091  -54.8882 H         1 UNK         0.1034 
     83 H83        25.5515  -45.5263  -54.5465 H         1 UNK         0.0482 
     84 H84        24.2113  -45.8377  -52.7284 H         1 UNK         0.3460 
     85 H85        22.5620  -45.2773  -52.6564 H         1 UNK         0.3460 
     86 H86        25.5494  -44.3061  -56.9449 H         1 UNK         0.2989 
     87 H87        23.6908  -46.3882  -59.0503 H         1 UNK         0.0559 
     88 H88        24.1642  -43.8670  -58.9742 H         1 UNK         0.0848 
     89 H89        24.9204  -44.6952  -60.3170 H         1 UNK         0.0848 
     90 H90        25.8878  -44.2365  -58.9245 H         1 UNK         0.0848 
     91 H91        26.1430  -47.2259  -57.8905 H         1 UNK         0.3144 
     92 H92        27.0832  -49.2099  -60.6432 H         1 UNK         0.0727 
     93 H93        29.4084  -48.3140  -60.3986 H         1 UNK         0.0790 
     94 H94        28.7657  -46.8279  -59.6995 H         1 UNK         0.0790 
     95 H95        28.4029  -47.2471  -61.3668 H         1 UNK         0.0790 
     96 H96        28.3069  -48.6788  -58.0740 H         1 UNK         0.3215 
     97 H97        26.1695  -50.6962  -56.1616 H         1 UNK         0.0863 
     98 H98        28.0116  -52.2970  -55.7479 H         1 UNK         0.0808 
     99 H99        28.8602  -51.7487  -57.1934 H         1 UNK         0.0808 
    100 H100       27.3264  -52.5980  -57.3350 H         1 UNK         0.0808 
    101 H101       28.7317  -49.9549  -55.4121 H         1 UNK         0.3118 
    102 H102       28.4146  -46.4372  -55.1457 H         1 UNK         0.0546 
    103 H103       28.3822  -48.5511  -52.9317 H         1 UNK         0.0828 
    104 H104       27.3285  -47.1528  -53.0560 H         1 UNK         0.0828 
    105 H105       29.0452  -46.9259  -52.7524 H         1 UNK         0.0828 
    106 H106       30.5605  -48.0157  -54.3099 H         1 UNK         0.3005 
    107 H107       32.2792  -48.3279  -57.4331 H         1 UNK         0.1257 
    108 H108       33.7829  -47.4649  -55.3112 H         1 UNK         0.0775 
    109 H109       32.4210  -46.4369  -55.0460 H         1 UNK         0.0775 
    110 H110       32.5714  -44.0840  -58.2237 H         1 UNK         0.0840 
    111 H111       31.4153  -45.3446  -57.9096 H         1 UNK         0.0840 
    112 H112       32.4230  -49.3427  -54.6856 H         1 UNK         0.2987 
    113 H113       31.2375  -52.5460  -55.5078 H         1 UNK         0.0785 
    114 H114       33.5558  -52.8400  -56.3975 H         1 UNK         0.0798 
    115 H115       33.4315  -53.4414  -54.7534 H         1 UNK         0.0798 
    116 H116       34.2041  -51.8867  -55.0703 H         1 UNK         0.0798 
    117 H117       32.6097  -51.5410  -53.2019 H         1 UNK         0.3079 
    118 H118       29.8788  -49.8313  -51.7160 H         1 UNK         0.0794 
    119 H119       30.2880  -51.4046  -49.8516 H         1 UNK         0.0786 
    120 H120       31.1532  -52.5053  -50.9253 H         1 UNK         0.0786 
    121 H121       29.4314  -52.2251  -51.1448 H         1 UNK         0.0786 
    122 H122       32.4281  -50.3434  -50.6679 H         1 UNK         0.3032 
    123 H123       33.7982  -48.2660  -50.4658 H         1 UNK         0.1094 
    124 H124       34.9657  -49.7026  -52.9281 H         1 UNK         0.0794 
    125 H125       35.8955  -49.1881  -51.5240 H         1 UNK         0.0794 
    126 H126       34.6784  -50.4359  -51.3544 H         1 UNK         0.0794 
    127 H127       34.8898  -47.2508  -52.9940 H         1 UNK         0.3016 
@<TRIPOS>BOND
     1    1    2 1    
     2    1   67 1    
     3    1   68 1    
     4    1   69 1    
     5    2    3 2    
     6    2    4 am   BACKBONE|DICT|INTERRES
     7    4    5 1    
     8    4   70 1    
     9    5    6 1    
    10    5   65 1    
    11    5   71 1    
    12    6    7 1    
    13    6   72 1    
    14    6   73 1    
    15    7    8 1    
    16    8    9 1    
    17    8   74 1    
    18    8   75 1    
    19    9   10 ar   
    20    9   14 ar   
    21   10   11 ar   
    22   10   76 1    
    23   11   12 ar   
    24   11   48 1    
    25   12   13 ar   
    26   12   77 1    
    27   13   14 ar   
    28   13   15 1    
    29   14   78 1    
    30   15   16 1    
    31   15   79 1    
    32   15   80 1    
    33   16   17 1    
    34   17   18 1    
    35   17   81 1    
    36   17   82 1    
    37   18   19 1    
    38   18   22 1    
    39   18   83 1    
    40   19   20 am   BACKBONE|DICT|INTERRES
    41   19   21 2    
    42   20   84 1    
    43   20   85 1    
    44   22   23 am   BACKBONE|DICT|INTERRES
    45   22   86 1    
    46   23   24 2    
    47   23   25 1    
    48   25   26 1    
    49   25   27 1    
    50   25   87 1    
    51   26   88 1    
    52   26   89 1    
    53   26   90 1    
    54   27   28 am   BACKBONE|DICT|INTERRES
    55   27   91 1    
    56   28   29 2    
    57   28   30 1    
    58   30   31 1    
    59   30   32 1    
    60   30   92 1    
    61   31   93 1    
    62   31   94 1    
    63   31   95 1    
    64   32   33 am   BACKBONE|DICT|INTERRES
    65   32   96 1    
    66   33   34 2    
    67   33   35 1    
    68   35   36 1    
    69   35   37 1    
    70   35   97 1    
    71   36   98 1    
    72   36   99 1    
    73   36  100 1    
    74   37   38 am   BACKBONE|DICT|INTERRES
    75   37  101 1    
    76   38   39 2    
    77   38   40 1    
    78   40   41 1    
    79   40   42 1    
    80   40  102 1    
    81   41  103 1    
    82   41  104 1    
    83   41  105 1    
    84   42   43 am   BACKBONE|DICT|INTERRES
    85   42  106 1    
    86   43   44 2    
    87   43   45 1    
    88   45   46 1    
    89   45   49 1    
    90   45  107 1    
    91   46   47 1    
    92   46  108 1    
    93   46  109 1    
    94   47   48 1    
    95   48  110 1    
    96   48  111 1    
    97   49   50 am   BACKBONE|DICT|INTERRES
    98   49  112 1    
    99   50   51 2    
   100   50   52 1    
   101   52   53 1    
   102   52   54 1    
   103   52  113 1    
   104   53  114 1    
   105   53  115 1    
   106   53  116 1    
   107   54   55 am   BACKBONE|DICT|INTERRES
   108   54  117 1    
   109   55   56 2    
   110   55   57 1    
   111   57   58 1    
   112   57   59 1    
   113   57  118 1    
   114   58  119 1    
   115   58  120 1    
   116   58  121 1    
   117   59   60 am   BACKBONE|DICT|INTERRES
   118   59  122 1    
   119   60   61 2    
   120   60   62 1    
   121   62   63 1    
   122   62   64 1    
   123   62  123 1    
   124   63  124 1    
   125   63  125 1    
   126   63  126 1    
   127   64   65 am   BACKBONE|DICT|INTERRES
   128   64  127 1    
   129   65   66 2    
@<TRIPOS>SUBSTRUCTURE
     1 UNK         1 GROUP             0       ****    0 ROOT    
