@<TRIPOS>MOLECULE
3R134
127   129    1
SMALL
USER_CHARGES


@<TRIPOS>ATOM
      1 CA         37.5887  -43.6160  -57.7569 C.3       0 UNK        -0.1968 
      2 C          36.2662  -44.0329  -57.1299 C.2       0 UNK         0.4852 
      3 O          35.3746  -43.1977  -56.9710 O.2       0 UNK        -0.5359 
      4 N          36.1327  -45.3147  -56.7749 N.am      1 UNK        -0.4300 
      5 CA         34.9379  -45.9158  -56.1893 C.3       1 UNK         0.0863 
      6 C6         34.8053  -45.6045  -54.6725 C.3       11 UNK        -0.0953 
      7 S7         33.0919  -45.7822  -54.0660 S.3       11 UNK        -0.2369 
      8 C8         32.6842  -44.0473  -53.7104 C.3       11 UNK         0.0226 
      9 C9         31.2401  -43.8859  -53.2616 C.ar      11 UNK        -0.0699 
     10 C10        30.8594  -44.2565  -51.9675 C.ar      11 UNK        -0.0804 
     11 C11        29.5408  -44.0769  -51.5377 C.ar      11 UNK        -0.0871 
     12 C12        28.6072  -43.5064  -52.4062 C.ar      11 UNK        -0.1008 
     13 C13        28.9733  -43.1390  -53.7035 C.ar      11 UNK        -0.0735 
     14 C14        30.2902  -43.3370  -54.1292 C.ar      11 UNK        -0.0945 
     15 C15        27.9426  -42.5191  -54.6336 C.3       11 UNK         0.0169 
     16 S16        26.6539  -43.7245  -55.0617 S.3       11 UNK        -0.2669 
     17 C17        25.6162  -42.7637  -56.2193 C.3       11 UNK        -0.0850 
     18 CA         25.8865  -43.0932  -57.7128 C.3       10 UNK         0.0855 
     19 C          27.1151  -42.3158  -58.2736 C.2       10 UNK         0.5543 
     20 N          28.1508  -42.9640  -58.7927 N.am      10 UNK        -0.7343 
     21 O          27.1214  -41.0876  -58.2451 O.2       10 UNK        -0.5027 
     22 N          25.9112  -44.5451  -57.9325 N.am      10 UNK        -0.4495 
     23 C          25.7091  -45.1705  -59.0952 C.2       10 UNK         0.4903 
     24 O          25.3545  -44.6007  -60.1285 O.2       10 UNK        -0.4860 
     25 CA         25.9605  -46.6924  -59.0872 C.3       9 UNK         0.0227 
     26 CB         26.1379  -47.2719  -60.5062 C.3       9 UNK        -0.1964 
     27 N          27.0825  -47.1005  -58.2268 N.am      9 UNK        -0.4231 
     28 C          28.3597  -46.6866  -58.3026 C.2       9 UNK         0.5014 
     29 O          28.7504  -45.8128  -59.0777 O.2       9 UNK        -0.5270 
     30 CA         29.3856  -47.3464  -57.3598 C.3       8 UNK         0.0284 
     31 CB         29.7880  -46.3823  -56.2303 C.3       8 UNK        -0.1977 
     32 N          28.9321  -48.6134  -56.7793 N.am      8 UNK        -0.4342 
     33 C          28.7159  -49.7444  -57.4682 C.2       8 UNK         0.5039 
     34 O          28.9103  -49.8576  -58.6786 O.2       8 UNK        -0.5547 
     35 CA         28.1766  -50.9503  -56.6819 C.3       7 UNK         0.0281 
     36 CB         29.3223  -51.9000  -56.2986 C.3       7 UNK        -0.1963 
     37 N          27.4342  -50.5603  -55.4794 N.am      7 UNK        -0.4444 
     38 C          26.2083  -50.0162  -55.4897 C.2       7 UNK         0.5104 
     39 O          25.5693  -49.7879  -56.5170 O.2       7 UNK        -0.5100 
     40 CA         25.6073  -49.6374  -54.1243 C.3       6 UNK         0.0396 
     41 CB         24.9233  -50.8531  -53.4794 C.3       6 UNK        -0.1801 
     42 N          26.6015  -49.0855  -53.1997 N.am      6 UNK        -0.4747 
     43 C          27.2094  -47.8998  -53.3623 C.2       6 UNK         0.5012 
     44 O          26.9555  -47.1327  -54.2888 O.2       6 UNK        -0.5003 
     45 CA         28.3160  -47.5372  -52.3497 C.3       5 UNK         0.0782 
     46 C46        27.7297  -46.7579  -51.1456 C.3       11 UNK        -0.0868 
     47 S47        29.0165  -46.2891  -49.9338 S.3       11 UNK        -0.2515 
     48 C48        29.1225  -44.4819  -50.1318 C.3       11 UNK         0.0199 
     49 N          29.0804  -48.7140  -51.9154 N.am      5 UNK        -0.4607 
     50 C          29.8391  -49.4766  -52.7089 C.2       4 UNK         0.5031 
     51 O          29.9284  -49.3249  -53.9294 O.2       4 UNK        -0.5119 
     52 CA         30.5958  -50.6240  -52.0275 C.3       4 UNK         0.0263 
     53 CB         29.9957  -51.9864  -52.4089 C.3       4 UNK        -0.1967 
     54 N          31.9994  -50.5792  -52.4232 N.am      4 UNK        -0.4237 
     55 C          32.9218  -49.7958  -51.8535 C.2       3 UNK         0.4908 
     56 O          32.7216  -49.1331  -50.8350 O.2       3 UNK        -0.5102 
     57 CA         34.2933  -49.7103  -52.5433 C.3       3 UNK         0.0241 
     58 CB         35.1583  -50.9526  -52.2513 C.3       3 UNK        -0.1971 
     59 N          34.2054  -49.4175  -53.9806 N.am      3 UNK        -0.4139 
     60 C          33.7546  -50.1875  -54.9833 C.2       2 UNK         0.5016 
     61 O          33.3590  -51.3441  -54.8278 O.2       2 UNK        -0.5319 
     62 CA         33.6831  -49.5469  -56.3855 C.3       2 UNK         0.0286 
     63 CB         32.3432  -49.8685  -57.0650 C.3       2 UNK        -0.1963 
     64 N          33.8367  -48.0892  -56.3374 N.am      2 UNK        -0.4790 
     65 C          34.9939  -47.4294  -56.4566 C.2       1 UNK         0.5024 
     66 O          36.0723  -47.9727  -56.7108 O.2       1 UNK        -0.4888 
     67 H67        37.4214  -43.2234  -58.7596 H         1 UNK         0.0892 
     68 H68        38.2857  -44.4507  -57.8314 H         1 UNK         0.0892 
     69 H69        38.0577  -42.8354  -57.1586 H         1 UNK         0.0892 
     70 H70        36.8706  -45.9851  -56.9584 H         1 UNK         0.3107 
     71 H71        34.0725  -45.5161  -56.7234 H         1 UNK         0.0773 
     72 H72        35.4637  -46.2382  -54.0752 H         1 UNK         0.0680 
     73 H73        35.1337  -44.5841  -54.4700 H         1 UNK         0.0680 
     74 H74        33.3506  -43.6727  -52.9320 H         1 UNK         0.0650 
     75 H75        32.8774  -43.4457  -54.6003 H         1 UNK         0.0650 
     76 H76        31.5892  -44.6888  -51.2962 H         1 UNK         0.1397 
     77 H77        27.5869  -43.3558  -52.0805 H         1 UNK         0.1363 
     78 H78        30.5794  -43.0521  -55.1316 H         1 UNK         0.1355 
     79 H79        28.4160  -42.1545  -55.5464 H         1 UNK         0.0707 
     80 H80        27.4877  -41.6547  -54.1477 H         1 UNK         0.0707 
     81 H81        25.7110  -41.6948  -56.0178 H         1 UNK         0.1034 
     82 H82        24.5770  -43.0036  -55.9895 H         1 UNK         0.1034 
     83 H83        25.0351  -42.7057  -58.2754 H         1 UNK         0.0482 
     84 H84        28.9268  -42.4336  -59.1539 H         1 UNK         0.3460 
     85 H85        28.1729  -43.9780  -58.8429 H         1 UNK         0.3460 
     86 H86        26.2177  -45.0890  -57.1378 H         1 UNK         0.2989 
     87 H87        25.0672  -47.1454  -58.6547 H         1 UNK         0.0559 
     88 H88        26.9889  -46.8242  -61.0207 H         1 UNK         0.0848 
     89 H89        25.2541  -47.0901  -61.1189 H         1 UNK         0.0848 
     90 H90        26.2943  -48.3504  -60.4771 H         1 UNK         0.0848 
     91 H91        26.8660  -47.8070  -57.5356 H         1 UNK         0.3144 
     92 H92        30.2762  -47.5603  -57.9542 H         1 UNK         0.0727 
     93 H93        30.5019  -46.8406  -55.5456 H         1 UNK         0.0790 
     94 H94        28.9267  -46.0575  -55.6463 H         1 UNK         0.0790 
     95 H95        30.2566  -45.4838  -56.6339 H         1 UNK         0.0790 
     96 H96        28.8136  -48.6389  -55.7736 H         1 UNK         0.3215 
     97 H97        27.4942  -51.4920  -57.3410 H         1 UNK         0.0863 
     98 H98        28.9546  -52.7747  -55.7621 H         1 UNK         0.0808 
     99 H99        30.0659  -51.4051  -55.6739 H         1 UNK         0.0808 
    100 H100       29.8397  -52.2608  -57.1885 H         1 UNK         0.0808 
    101 H101       27.9118  -50.6609  -54.5956 H         1 UNK         0.3118 
    102 H102       24.8462  -48.8733  -54.2974 H         1 UNK         0.0546 
    103 H103       24.1638  -51.2694  -54.1428 H         1 UNK         0.0828 
    104 H104       24.4233  -50.5805  -52.5499 H         1 UNK         0.0828 
    105 H105       25.6338  -51.6505  -53.2580 H         1 UNK         0.0828 
    106 H106       26.8645  -49.6555  -52.4085 H         1 UNK         0.3005 
    107 H107       29.0114  -46.8750  -52.8727 H         1 UNK         0.1257 
    108 H108       26.9857  -47.3630  -50.6240 H         1 UNK         0.0775 
    109 H109       27.2037  -45.8639  -51.4853 H         1 UNK         0.0775 
    110 H110       28.1623  -44.0363  -49.8668 H         1 UNK         0.0840 
    111 H111       29.8456  -44.0907  -49.4148 H         1 UNK         0.0840 
    112 H112       29.0796  -48.8907  -50.9210 H         1 UNK         0.2987 
    113 H113       30.5225  -50.5131  -50.9433 H         1 UNK         0.0785 
    114 H114       30.0981  -52.1924  -53.4734 H         1 UNK         0.0798 
    115 H115       28.9337  -52.0317  -52.1643 H         1 UNK         0.0798 
    116 H116       30.4866  -52.7957  -51.8682 H         1 UNK         0.0798 
    117 H117       32.2535  -51.0399  -53.2935 H         1 UNK         0.3079 
    118 H118       34.8063  -48.8518  -52.1062 H         1 UNK         0.0794 
    119 H119       34.7035  -51.8700  -52.6255 H         1 UNK         0.0786 
    120 H120       35.3011  -51.0799  -51.1774 H         1 UNK         0.0786 
    121 H121       36.1469  -50.8611  -52.7011 H         1 UNK         0.0786 
    122 H122       34.4516  -48.4710  -54.2304 H         1 UNK         0.3032 
    123 H123       34.4855  -49.9860  -56.9829 H         1 UNK         0.1094 
    124 H124       32.2630  -49.3956  -58.0439 H         1 UNK         0.0794 
    125 H125       32.2231  -50.9421  -57.2150 H         1 UNK         0.0794 
    126 H126       31.5079  -49.5279  -56.4543 H         1 UNK         0.0794 
    127 H127       33.0092  -47.5624  -56.0908 H         1 UNK         0.3016 
@<TRIPOS>BOND
     1    1    2 1    
     2    1   67 1    
     3    1   68 1    
     4    1   69 1    
     5    2    3 2    
     6    2    4 am   BACKBONE|DICT|INTERRES
     7    4    5 1    
     8    4   70 1    
     9    5    6 1    
    10    5   65 1    
    11    5   71 1    
    12    6    7 1    
    13    6   72 1    
    14    6   73 1    
    15    7    8 1    
    16    8    9 1    
    17    8   74 1    
    18    8   75 1    
    19    9   10 ar   
    20    9   14 ar   
    21   10   11 ar   
    22   10   76 1    
    23   11   12 ar   
    24   11   48 1    
    25   12   13 ar   
    26   12   77 1    
    27   13   14 ar   
    28   13   15 1    
    29   14   78 1    
    30   15   16 1    
    31   15   79 1    
    32   15   80 1    
    33   16   17 1    
    34   17   18 1    
    35   17   81 1    
    36   17   82 1    
    37   18   19 1    
    38   18   22 1    
    39   18   83 1    
    40   19   20 am   BACKBONE|DICT|INTERRES
    41   19   21 2    
    42   20   84 1    
    43   20   85 1    
    44   22   23 am   BACKBONE|DICT|INTERRES
    45   22   86 1    
    46   23   24 2    
    47   23   25 1    
    48   25   26 1    
    49   25   27 1    
    50   25   87 1    
    51   26   88 1    
    52   26   89 1    
    53   26   90 1    
    54   27   28 am   BACKBONE|DICT|INTERRES
    55   27   91 1    
    56   28   29 2    
    57   28   30 1    
    58   30   31 1    
    59   30   32 1    
    60   30   92 1    
    61   31   93 1    
    62   31   94 1    
    63   31   95 1    
    64   32   33 am   BACKBONE|DICT|INTERRES
    65   32   96 1    
    66   33   34 2    
    67   33   35 1    
    68   35   36 1    
    69   35   37 1    
    70   35   97 1    
    71   36   98 1    
    72   36   99 1    
    73   36  100 1    
    74   37   38 am   BACKBONE|DICT|INTERRES
    75   37  101 1    
    76   38   39 2    
    77   38   40 1    
    78   40   41 1    
    79   40   42 1    
    80   40  102 1    
    81   41  103 1    
    82   41  104 1    
    83   41  105 1    
    84   42   43 am   BACKBONE|DICT|INTERRES
    85   42  106 1    
    86   43   44 2    
    87   43   45 1    
    88   45   46 1    
    89   45   49 1    
    90   45  107 1    
    91   46   47 1    
    92   46  108 1    
    93   46  109 1    
    94   47   48 1    
    95   48  110 1    
    96   48  111 1    
    97   49   50 am   BACKBONE|DICT|INTERRES
    98   49  112 1    
    99   50   51 2    
   100   50   52 1    
   101   52   53 1    
   102   52   54 1    
   103   52  113 1    
   104   53  114 1    
   105   53  115 1    
   106   53  116 1    
   107   54   55 am   BACKBONE|DICT|INTERRES
   108   54  117 1    
   109   55   56 2    
   110   55   57 1    
   111   57   58 1    
   112   57   59 1    
   113   57  118 1    
   114   58  119 1    
   115   58  120 1    
   116   58  121 1    
   117   59   60 am   BACKBONE|DICT|INTERRES
   118   59  122 1    
   119   60   61 2    
   120   60   62 1    
   121   62   63 1    
   122   62   64 1    
   123   62  123 1    
   124   63  124 1    
   125   63  125 1    
   126   63  126 1    
   127   64   65 am   BACKBONE|DICT|INTERRES
   128   64  127 1    
   129   65   66 2    
@<TRIPOS>SUBSTRUCTURE
     1 UNK         1 GROUP             0       ****    0 ROOT    
