@<TRIPOS>MOLECULE
3R134
127   129    1
SMALL
USER_CHARGES


@<TRIPOS>ATOM
      1 CA         35.3508  -43.3581  -50.0927 C.3       0 UNK        -0.1968 
      2 C          36.2505  -43.5678  -51.3020 C.2       0 UNK         0.4852 
      3 O          37.4698  -43.6544  -51.1502 O.2       0 UNK        -0.5359 
      4 N          35.6555  -43.6450  -52.4993 N.am      1 UNK        -0.4300 
      5 CA         36.3340  -43.9058  -53.7747 C.3       1 UNK         0.0863 
      6 C6         35.4161  -43.5970  -54.9906 C.3       11 UNK        -0.0953 
      7 S7         33.7851  -44.4313  -54.9399 S.3       11 UNK        -0.2369 
      8 C8         32.7101  -43.0609  -54.4145 C.3       11 UNK         0.0226 
      9 C9         31.3768  -43.5577  -53.8739 C.ar      11 UNK        -0.0699 
     10 C10        31.3184  -44.1839  -52.6246 C.ar      11 UNK        -0.0804 
     11 C11        30.0926  -44.5869  -52.0871 C.ar      11 UNK        -0.0871 
     12 C12        28.9169  -44.3488  -52.8027 C.ar      11 UNK        -0.1008 
     13 C13        28.9627  -43.7444  -54.0625 C.ar      11 UNK        -0.0735 
     14 C14        30.1961  -43.3540  -54.5954 C.ar      11 UNK        -0.0945 
     15 C15        27.6746  -43.4804  -54.8296 C.3       11 UNK         0.0169 
     16 S16        26.7640  -45.0075  -55.2253 S.3       11 UNK        -0.2669 
     17 C17        27.8805  -45.8190  -56.4206 C.3       11 UNK        -0.0850 
     18 CA         27.7576  -45.2516  -57.8588 C.3       10 UNK         0.0855 
     19 C          28.7811  -45.9232  -58.8212 C.2       10 UNK         0.5543 
     20 N          28.3657  -46.5641  -59.9089 N.am      10 UNK        -0.7343 
     21 O          29.9834  -45.8447  -58.5842 O.2       10 UNK        -0.5027 
     22 N          26.3695  -45.2795  -58.3445 N.am      10 UNK        -0.4495 
     23 C          25.8760  -44.4545  -59.2781 C.2       10 UNK         0.4903 
     24 O          26.5157  -43.5204  -59.7647 O.2       10 UNK        -0.4860 
     25 CA         24.4276  -44.7122  -59.7508 C.3       9 UNK         0.0227 
     26 CB         24.1740  -44.1945  -61.1831 C.3       9 UNK        -0.1964 
     27 N          24.0008  -46.1133  -59.6287 N.am      9 UNK        -0.4231 
     28 C          24.5871  -47.1842  -60.1825 C.2       9 UNK         0.5014 
     29 O          25.5791  -47.1374  -60.9147 O.2       9 UNK        -0.5270 
     30 CA         23.9876  -48.5502  -59.8135 C.3       8 UNK         0.0284 
     31 CB         23.3665  -49.2268  -61.0466 C.3       8 UNK        -0.1977 
     32 N          25.0023  -49.4302  -59.2304 N.am      8 UNK        -0.4342 
     33 C          25.6705  -49.1816  -58.0961 C.2       8 UNK         0.5039 
     34 O          25.4818  -48.1859  -57.3913 O.2       8 UNK        -0.5547 
     35 CA         26.7560  -50.2022  -57.7188 C.3       7 UNK         0.0281 
     36 CB         28.0864  -49.8466  -58.4015 C.3       7 UNK        -0.1963 
     37 N          26.9567  -50.2821  -56.2695 N.am      7 UNK        -0.4444 
     38 C          26.1036  -50.8864  -55.4286 C.2       7 UNK         0.5104 
     39 O          25.0674  -51.4397  -55.8016 O.2       7 UNK        -0.5100 
     40 CA         26.4605  -50.9362  -53.9293 C.3       6 UNK         0.0396 
     41 CB         26.8293  -52.3711  -53.5164 C.3       6 UNK        -0.1801 
     42 N          27.5603  -50.0474  -53.5532 N.am      6 UNK        -0.4747 
     43 C          27.4366  -48.7416  -53.2780 C.2       6 UNK         0.5012 
     44 O          26.3577  -48.1495  -53.2604 O.2       6 UNK        -0.5003 
     45 CA         28.7337  -47.9682  -52.9478 C.3       5 UNK         0.0782 
     46 C46        28.8407  -47.7510  -51.4143 C.3       11 UNK        -0.0868 
     47 S47        30.4294  -47.0383  -50.8553 S.3       11 UNK        -0.2515 
     48 C48        30.0438  -45.2649  -50.7271 C.3       11 UNK         0.0199 
     49 N          29.9582  -48.5616  -53.5026 N.am      5 UNK        -0.4607 
     50 C          30.2086  -48.8059  -54.7954 C.2       4 UNK         0.5031 
     51 O          29.3609  -48.7028  -55.6784 O.2       4 UNK        -0.5119 
     52 CA         31.6337  -49.2284  -55.1821 C.3       4 UNK         0.0263 
     53 CB         32.2564  -48.1847  -56.1258 C.3       4 UNK        -0.1967 
     54 N          32.5113  -49.3832  -54.0219 N.am      4 UNK        -0.4237 
     55 C          32.7646  -50.5203  -53.3639 C.2       3 UNK         0.4908 
     56 O          32.2343  -51.5968  -53.6426 O.2       3 UNK        -0.5102 
     57 CA         33.8009  -50.4336  -52.2171 C.3       3 UNK         0.0241 
     58 CB         34.2259  -51.8202  -51.6977 C.3       3 UNK        -0.1971 
     59 N          35.0033  -49.6785  -52.6013 N.am      3 UNK        -0.4139 
     60 C          35.0628  -48.3462  -52.7239 C.2       2 UNK         0.5016 
     61 O          34.1156  -47.6042  -52.4387 O.2       2 UNK        -0.5319 
     62 CA         36.3357  -47.7472  -53.3426 C.3       2 UNK         0.0286 
     63 CB         36.5497  -48.2953  -54.7724 C.3       2 UNK        -0.1963 
     64 N          36.1300  -46.3024  -53.3641 N.am      2 UNK        -0.4790 
     65 C          36.9160  -45.3345  -53.8447 C.2       1 UNK         0.5024 
     66 O          38.0403  -45.5192  -54.3128 O.2       1 UNK        -0.4888 
     67 H67        34.3005  -43.2767  -50.3727 H         1 UNK         0.0892 
     68 H68        35.4528  -44.1939  -49.4008 H         1 UNK         0.0892 
     69 H69        35.6330  -42.4452  -49.5688 H         1 UNK         0.0892 
     70 H70        34.6512  -43.5743  -52.5581 H         1 UNK         0.3107 
     71 H71        37.1853  -43.2236  -53.8304 H         1 UNK         0.0773 
     72 H72        35.9123  -43.8731  -55.9231 H         1 UNK         0.0680 
     73 H73        35.2596  -42.5196  -55.0606 H         1 UNK         0.0680 
     74 H74        33.2060  -42.4747  -53.6400 H         1 UNK         0.0650 
     75 H75        32.5603  -42.3864  -55.2590 H         1 UNK         0.0650 
     76 H76        32.2283  -44.3576  -52.0672 H         1 UNK         0.1397 
     77 H77        27.9630  -44.6457  -52.3878 H         1 UNK         0.1363 
     78 H78        30.2357  -42.8714  -55.5624 H         1 UNK         0.1355 
     79 H79        27.8704  -42.9296  -55.7505 H         1 UNK         0.0707 
     80 H80        27.0322  -42.8400  -54.2239 H         1 UNK         0.0707 
     81 H81        28.9074  -45.7472  -56.0568 H         1 UNK         0.1034 
     82 H82        27.6403  -46.8832  -56.4220 H         1 UNK         0.1034 
     83 H83        28.0633  -44.2053  -57.8081 H         1 UNK         0.0482 
     84 H84        27.3794  -46.6338  -60.1350 H         1 UNK         0.3460 
     85 H85        29.0483  -46.9787  -60.5220 H         1 UNK         0.3460 
     86 H86        25.8024  -46.0467  -58.0031 H         1 UNK         0.2989 
     87 H87        23.7880  -44.1413  -59.0763 H         1 UNK         0.0559 
     88 H88        24.8285  -44.6784  -61.9089 H         1 UNK         0.0848 
     89 H89        24.3522  -43.1206  -61.2508 H         1 UNK         0.0848 
     90 H90        23.1435  -44.3686  -61.4924 H         1 UNK         0.0848 
     91 H91        23.2134  -46.2724  -59.0144 H         1 UNK         0.3144 
     92 H92        23.2024  -48.4097  -59.0676 H         1 UNK         0.0727 
     93 H93        22.8984  -50.1765  -60.7866 H         1 UNK         0.0790 
     94 H94        22.5938  -48.5962  -61.4886 H         1 UNK         0.0790 
     95 H95        24.1111  -49.4188  -61.8205 H         1 UNK         0.0790 
     96 H96        25.2499  -50.2468  -59.7701 H         1 UNK         0.3215 
     97 H97        26.4444  -51.1882  -58.0711 H         1 UNK         0.0863 
     98 H98        27.9848  -49.8497  -59.4874 H         1 UNK         0.0808 
     99 H99        28.8702  -50.5595  -58.1453 H         1 UNK         0.0808 
    100 H100       28.4313  -48.8537  -58.1140 H         1 UNK         0.0808 
    101 H101       27.7594  -49.7828  -55.8963 H         1 UNK         0.3118 
    102 H102       25.5661  -50.6465  -53.3736 H         1 UNK         0.0546 
    103 H103       27.0219  -52.4397  -52.4456 H         1 UNK         0.0828 
    104 H104       27.7160  -52.7279  -54.0418 H         1 UNK         0.0828 
    105 H105       26.0174  -53.0643  -53.7412 H         1 UNK         0.0828 
    106 H106       28.4885  -50.4459  -53.5475 H         1 UNK         0.3005 
    107 H107       28.6296  -46.9936  -53.4271 H         1 UNK         0.1257 
    108 H108       28.7287  -48.7038  -50.8925 H         1 UNK         0.0775 
    109 H109       28.0201  -47.1230  -51.0625 H         1 UNK         0.0775 
    110 H110       29.0716  -45.1236  -50.2523 H         1 UNK         0.0840 
    111 H111       30.7724  -44.7968  -50.0633 H         1 UNK         0.0840 
    112 H112       30.7190  -48.6609  -52.8466 H         1 UNK         0.2987 
    113 H113       31.5598  -50.1774  -55.7174 H         1 UNK         0.0785 
    114 H114       31.6493  -48.0531  -57.0231 H         1 UNK         0.0798 
    115 H115       33.2518  -48.4869  -56.4512 H         1 UNK         0.0798 
    116 H116       32.3417  -47.2081  -55.6469 H         1 UNK         0.0798 
    117 H117       32.9677  -48.5421  -53.6776 H         1 UNK         0.3079 
    118 H118       33.3127  -49.9092  -51.3926 H         1 UNK         0.0794 
    119 H119       34.9233  -51.7353  -50.8640 H         1 UNK         0.0786 
    120 H120       34.7042  -52.4141  -52.4775 H         1 UNK         0.0786 
    121 H121       33.3649  -52.3855  -51.3381 H         1 UNK         0.0786 
    122 H122       35.8030  -50.2271  -52.8838 H         1 UNK         0.3032 
    123 H123       37.1905  -47.9825  -52.7058 H         1 UNK         0.1094 
    124 H124       35.7105  -48.0499  -55.4249 H         1 UNK         0.0794 
    125 H125       37.4538  -47.8952  -55.2301 H         1 UNK         0.0794 
    126 H126       36.6589  -49.3801  -54.7754 H         1 UNK         0.0794 
    127 H127       35.2191  -46.0475  -52.9955 H         1 UNK         0.3016 
@<TRIPOS>BOND
     1    1    2 1    
     2    1   67 1    
     3    1   68 1    
     4    1   69 1    
     5    2    3 2    
     6    2    4 am   BACKBONE|DICT|INTERRES
     7    4    5 1    
     8    4   70 1    
     9    5    6 1    
    10    5   65 1    
    11    5   71 1    
    12    6    7 1    
    13    6   72 1    
    14    6   73 1    
    15    7    8 1    
    16    8    9 1    
    17    8   74 1    
    18    8   75 1    
    19    9   10 ar   
    20    9   14 ar   
    21   10   11 ar   
    22   10   76 1    
    23   11   12 ar   
    24   11   48 1    
    25   12   13 ar   
    26   12   77 1    
    27   13   14 ar   
    28   13   15 1    
    29   14   78 1    
    30   15   16 1    
    31   15   79 1    
    32   15   80 1    
    33   16   17 1    
    34   17   18 1    
    35   17   81 1    
    36   17   82 1    
    37   18   19 1    
    38   18   22 1    
    39   18   83 1    
    40   19   20 am   BACKBONE|DICT|INTERRES
    41   19   21 2    
    42   20   84 1    
    43   20   85 1    
    44   22   23 am   BACKBONE|DICT|INTERRES
    45   22   86 1    
    46   23   24 2    
    47   23   25 1    
    48   25   26 1    
    49   25   27 1    
    50   25   87 1    
    51   26   88 1    
    52   26   89 1    
    53   26   90 1    
    54   27   28 am   BACKBONE|DICT|INTERRES
    55   27   91 1    
    56   28   29 2    
    57   28   30 1    
    58   30   31 1    
    59   30   32 1    
    60   30   92 1    
    61   31   93 1    
    62   31   94 1    
    63   31   95 1    
    64   32   33 am   BACKBONE|DICT|INTERRES
    65   32   96 1    
    66   33   34 2    
    67   33   35 1    
    68   35   36 1    
    69   35   37 1    
    70   35   97 1    
    71   36   98 1    
    72   36   99 1    
    73   36  100 1    
    74   37   38 am   BACKBONE|DICT|INTERRES
    75   37  101 1    
    76   38   39 2    
    77   38   40 1    
    78   40   41 1    
    79   40   42 1    
    80   40  102 1    
    81   41  103 1    
    82   41  104 1    
    83   41  105 1    
    84   42   43 am   BACKBONE|DICT|INTERRES
    85   42  106 1    
    86   43   44 2    
    87   43   45 1    
    88   45   46 1    
    89   45   49 1    
    90   45  107 1    
    91   46   47 1    
    92   46  108 1    
    93   46  109 1    
    94   47   48 1    
    95   48  110 1    
    96   48  111 1    
    97   49   50 am   BACKBONE|DICT|INTERRES
    98   49  112 1    
    99   50   51 2    
   100   50   52 1    
   101   52   53 1    
   102   52   54 1    
   103   52  113 1    
   104   53  114 1    
   105   53  115 1    
   106   53  116 1    
   107   54   55 am   BACKBONE|DICT|INTERRES
   108   54  117 1    
   109   55   56 2    
   110   55   57 1    
   111   57   58 1    
   112   57   59 1    
   113   57  118 1    
   114   58  119 1    
   115   58  120 1    
   116   58  121 1    
   117   59   60 am   BACKBONE|DICT|INTERRES
   118   59  122 1    
   119   60   61 2    
   120   60   62 1    
   121   62   63 1    
   122   62   64 1    
   123   62  123 1    
   124   63  124 1    
   125   63  125 1    
   126   63  126 1    
   127   64   65 am   BACKBONE|DICT|INTERRES
   128   64  127 1    
   129   65   66 2    
@<TRIPOS>SUBSTRUCTURE
     1 UNK         1 GROUP             0       ****    0 ROOT    
