@<TRIPOS>MOLECULE
3R134
127   129    1
SMALL
USER_CHARGES


@<TRIPOS>ATOM
      1 CA         37.8625  -44.0862  -56.9069 C.3       0 UNK        -0.1968 
      2 C          36.7853  -44.8874  -56.1897 C.2       0 UNK         0.4852 
      3 O          37.1071  -45.6668  -55.2913 O.2       0 UNK        -0.5359 
      4 N          35.5178  -44.6948  -56.5833 N.am      1 UNK        -0.4300 
      5 CA         34.3221  -45.3675  -56.0549 C.3       1 UNK         0.0863 
      6 C6         34.0117  -45.0219  -54.5677 C.3       11 UNK        -0.0953 
      7 S7         33.8813  -43.2257  -54.2841 S.3       11 UNK        -0.2369 
      8 C8         32.8501  -43.1711  -52.7781 C.3       11 UNK         0.0226 
      9 C9         31.3602  -43.4586  -52.9793 C.ar      11 UNK        -0.0699 
     10 C10        30.5986  -43.8380  -51.8684 C.ar      11 UNK        -0.0804 
     11 C11        29.2218  -44.0540  -51.9802 C.ar      11 UNK        -0.0871 
     12 C12        28.6052  -43.9121  -53.2259 C.ar      11 UNK        -0.1008 
     13 C13        29.3482  -43.5291  -54.3456 C.ar      11 UNK        -0.0735 
     14 C14        30.7208  -43.2985  -54.2165 C.ar      11 UNK        -0.0945 
     15 C15        28.6589  -43.3447  -55.6883 C.3       11 UNK         0.0169 
     16 S16        27.6335  -41.8433  -55.6795 S.3       11 UNK        -0.2669 
     17 C17        27.0300  -41.7703  -57.3988 C.3       11 UNK        -0.0850 
     18 CA         25.6852  -42.5363  -57.5844 C.3       10 UNK         0.0855 
     19 C          24.8163  -41.9937  -58.7645 C.2       10 UNK         0.5543 
     20 N          23.9849  -42.8124  -59.3981 N.am      10 UNK        -0.7343 
     21 O          24.8619  -40.8095  -59.0895 O.2       10 UNK        -0.5027 
     22 N          25.8726  -44.0014  -57.5745 N.am      10 UNK        -0.4495 
     23 C          26.4923  -44.7166  -58.5245 C.2       10 UNK         0.4903 
     24 O          26.9872  -44.2270  -59.5411 O.2       10 UNK        -0.4860 
     25 CA         26.5378  -46.2375  -58.2995 C.3       9 UNK         0.0227 
     26 CB         26.3410  -47.0244  -59.6113 C.3       9 UNK        -0.1964 
     27 N          27.7512  -46.6835  -57.6073 N.am      9 UNK        -0.4231 
     28 C          29.0318  -46.5815  -58.0018 C.2       9 UNK         0.5014 
     29 O          29.4182  -45.9776  -59.0021 O.2       9 UNK        -0.5270 
     30 CA         30.0659  -47.3442  -57.1536 C.3       8 UNK         0.0284 
     31 CB         30.4837  -46.5316  -55.9183 C.3       8 UNK        -0.1977 
     32 N          29.5807  -48.6634  -56.7384 N.am      8 UNK        -0.4342 
     33 C          29.3231  -49.6839  -57.5716 C.2       8 UNK         0.5039 
     34 O          29.5334  -49.6539  -58.7845 O.2       8 UNK        -0.5547 
     35 CA         28.7088  -50.9484  -56.9501 C.3       7 UNK         0.0281 
     36 CB         29.7976  -51.8898  -56.4074 C.3       7 UNK        -0.1963 
     37 N          27.7593  -50.6167  -55.8863 N.am      7 UNK        -0.4444 
     38 C          26.5018  -50.2036  -56.1018 C.2       7 UNK         0.5104 
     39 O          25.9785  -50.1465  -57.2144 O.2       7 UNK        -0.5100 
     40 CA         25.6907  -49.7655  -54.8686 C.3       6 UNK         0.0396 
     41 CB         24.9001  -50.9529  -54.2970 C.3       6 UNK        -0.1801 
     42 N          26.5183  -49.1789  -53.8108 N.am      6 UNK        -0.4747 
     43 C          27.1625  -48.0059  -53.9074 C.2       6 UNK         0.5012 
     44 O          27.0970  -47.2706  -54.8925 O.2       6 UNK        -0.5003 
     45 CA         28.0771  -47.6182  -52.7281 C.3       5 UNK         0.0782 
     46 C46        27.2880  -46.8120  -51.6715 C.3       11 UNK        -0.0868 
     47 S47        28.3805  -46.1596  -50.3643 S.3       11 UNK        -0.2515 
     48 C48        28.3955  -44.3801  -50.7432 C.3       11 UNK         0.0199 
     49 N          28.7531  -48.7807  -52.1360 N.am      5 UNK        -0.4607 
     50 C          29.6153  -49.5743  -52.7795 C.2       4 UNK         0.5031 
     51 O          29.9114  -49.4435  -53.9699 O.2       4 UNK        -0.5119 
     52 CA         30.1917  -50.7445  -51.9807 C.3       4 UNK         0.0263 
     53 CB         29.2675  -51.9717  -52.0708 C.3       4 UNK        -0.1967 
     54 N          31.5024  -51.0745  -52.5272 N.am      4 UNK        -0.4237 
     55 C          32.5395  -51.5523  -51.8291 C.2       3 UNK         0.4908 
     56 O          32.4800  -51.8371  -50.6319 O.2       3 UNK        -0.5102 
     57 CA         33.8734  -51.7593  -52.5768 C.3       3 UNK         0.0241 
     58 CB         34.1235  -53.2578  -52.8169 C.3       3 UNK        -0.1971 
     59 N          33.9737  -51.0503  -53.8582 N.am      3 UNK        -0.4139 
     60 C          34.0210  -49.7190  -53.9993 C.2       2 UNK         0.5016 
     61 O          34.0011  -48.9269  -53.0521 O.2       2 UNK        -0.5319 
     62 CA         34.0662  -49.1860  -55.4389 C.3       2 UNK         0.0286 
     63 CB         32.8751  -49.7045  -56.2696 C.3       2 UNK        -0.1963 
     64 N          34.0472  -47.7278  -55.3773 N.am      2 UNK        -0.4790 
     65 C          34.3737  -46.8835  -56.3610 C.2       1 UNK         0.5024 
     66 O          34.6972  -47.2564  -57.4912 O.2       1 UNK        -0.4888 
     67 H67        38.4063  -43.4674  -56.1936 H         1 UNK         0.0892 
     68 H68        38.5731  -44.7587  -57.3866 H         1 UNK         0.0892 
     69 H69        37.4446  -43.4324  -57.6723 H         1 UNK         0.0892 
     70 H70        35.3393  -44.0554  -57.3446 H         1 UNK         0.3107 
     71 H71        33.4883  -44.9903  -56.6492 H         1 UNK         0.0773 
     72 H72        33.0672  -45.4762  -54.2628 H         1 UNK         0.0680 
     73 H73        34.7801  -45.4174  -53.9014 H         1 UNK         0.0680 
     74 H74        32.9445  -42.1762  -52.3415 H         1 UNK         0.0650 
     75 H75        33.2685  -43.8678  -52.0498 H         1 UNK         0.0650 
     76 H76        31.0752  -43.9408  -50.9027 H         1 UNK         0.1397 
     77 H77        27.5395  -44.0666  -53.3243 H         1 UNK         0.1363 
     78 H78        31.2815  -42.9801  -55.0834 H         1 UNK         0.1355 
     79 H79        29.3891  -43.2866  -56.4970 H         1 UNK         0.0707 
     80 H80        28.0364  -44.2163  -55.8900 H         1 UNK         0.0707 
     81 H81        26.9121  -40.7091  -57.6241 H         1 UNK         0.1034 
     82 H82        27.7962  -42.1289  -58.0874 H         1 UNK         0.1034 
     83 H83        25.0704  -42.3225  -56.7093 H         1 UNK         0.0482 
     84 H84        23.9245  -43.7827  -59.1353 H         1 UNK         0.3460 
     85 H85        23.4173  -42.4552  -60.1505 H         1 UNK         0.3460 
     86 H86        25.4774  -44.4849  -56.7806 H         1 UNK         0.2989 
     87 H87        25.7066  -46.5004  -57.6430 H         1 UNK         0.0559 
     88 H88        25.4092  -46.7395  -60.1011 H         1 UNK         0.0848 
     89 H89        26.2960  -48.0975  -59.4236 H         1 UNK         0.0848 
     90 H90        27.1490  -46.8440  -60.3212 H         1 UNK         0.0848 
     91 H91        27.5823  -47.1211  -56.7040 H         1 UNK         0.3144 
     92 H92        30.9540  -47.5007  -57.7697 H         1 UNK         0.0727 
     93 H93        29.6306  -46.2937  -55.2847 H         1 UNK         0.0790 
     94 H94        30.9429  -45.5878  -56.2132 H         1 UNK         0.0790 
     95 H95        31.2086  -47.0714  -55.3095 H         1 UNK         0.0790 
     96 H96        29.4638  -48.8174  -55.7411 H         1 UNK         0.3215 
     97 H97        28.1750  -51.4787  -57.7422 H         1 UNK         0.0863 
     98 H98        29.3666  -52.8212  -56.0400 H         1 UNK         0.0808 
     99 H99        30.3630  -51.4406  -55.5923 H         1 UNK         0.0808 
    100 H100       30.5101  -52.1506  -57.1912 H         1 UNK         0.0808 
    101 H101       28.1209  -50.5910  -54.9438 H         1 UNK         0.3118 
    102 H102       24.9765  -49.0070  -55.1966 H         1 UNK         0.0546 
    103 H103       25.5593  -51.7417  -53.9322 H         1 UNK         0.0828 
    104 H104       24.2555  -51.3942  -55.0587 H         1 UNK         0.0828 
    105 H105       24.2575  -50.6428  -53.4729 H         1 UNK         0.0828 
    106 H106       26.6267  -49.7161  -52.9625 H         1 UNK         0.3005 
    107 H107       28.8543  -46.9684  -53.1361 H         1 UNK         0.1257 
    108 H108       26.5296  -47.4387  -51.1985 H         1 UNK         0.0775 
    109 H109       26.7447  -45.9870  -52.1352 H         1 UNK         0.0775 
    110 H110       27.3724  -44.0181  -50.8569 H         1 UNK         0.0840 
    111 H111       28.8039  -43.8465  -49.8834 H         1 UNK         0.0840 
    112 H112       28.5664  -48.9470  -51.1574 H         1 UNK         0.2987 
    113 H113       30.2948  -50.4349  -50.9382 H         1 UNK         0.0785 
    114 H114       28.2761  -51.7495  -51.6741 H         1 UNK         0.0798 
    115 H115       29.6648  -52.8073  -51.4943 H         1 UNK         0.0798 
    116 H116       29.1423  -52.3082  -53.1008 H         1 UNK         0.0798 
    117 H117       31.6348  -50.8000  -53.4912 H         1 UNK         0.3079 
    118 H118       34.6648  -51.3813  -51.9259 H         1 UNK         0.0794 
    119 H119       35.1032  -53.4316  -53.2626 H         1 UNK         0.0786 
    120 H120       33.3707  -53.6922  -53.4761 H         1 UNK         0.0786 
    121 H121       34.0948  -53.8147  -51.8791 H         1 UNK         0.0786 
    122 H122       34.0007  -51.6276  -54.6866 H         1 UNK         0.3032 
    123 H123       35.0056  -49.5076  -55.8940 H         1 UNK         0.1094 
    124 H124       31.9329  -49.4933  -55.7678 H         1 UNK         0.0794 
    125 H125       32.8358  -49.2483  -57.2585 H         1 UNK         0.0794 
    126 H126       32.9307  -50.7822  -56.4238 H         1 UNK         0.0794 
    127 H127       33.8582  -47.3733  -54.4465 H         1 UNK         0.3016 
@<TRIPOS>BOND
     1    1    2 1    
     2    1   67 1    
     3    1   68 1    
     4    1   69 1    
     5    2    3 2    
     6    2    4 am   BACKBONE|DICT|INTERRES
     7    4    5 1    
     8    4   70 1    
     9    5    6 1    
    10    5   65 1    
    11    5   71 1    
    12    6    7 1    
    13    6   72 1    
    14    6   73 1    
    15    7    8 1    
    16    8    9 1    
    17    8   74 1    
    18    8   75 1    
    19    9   10 ar   
    20    9   14 ar   
    21   10   11 ar   
    22   10   76 1    
    23   11   12 ar   
    24   11   48 1    
    25   12   13 ar   
    26   12   77 1    
    27   13   14 ar   
    28   13   15 1    
    29   14   78 1    
    30   15   16 1    
    31   15   79 1    
    32   15   80 1    
    33   16   17 1    
    34   17   18 1    
    35   17   81 1    
    36   17   82 1    
    37   18   19 1    
    38   18   22 1    
    39   18   83 1    
    40   19   20 am   BACKBONE|DICT|INTERRES
    41   19   21 2    
    42   20   84 1    
    43   20   85 1    
    44   22   23 am   BACKBONE|DICT|INTERRES
    45   22   86 1    
    46   23   24 2    
    47   23   25 1    
    48   25   26 1    
    49   25   27 1    
    50   25   87 1    
    51   26   88 1    
    52   26   89 1    
    53   26   90 1    
    54   27   28 am   BACKBONE|DICT|INTERRES
    55   27   91 1    
    56   28   29 2    
    57   28   30 1    
    58   30   31 1    
    59   30   32 1    
    60   30   92 1    
    61   31   93 1    
    62   31   94 1    
    63   31   95 1    
    64   32   33 am   BACKBONE|DICT|INTERRES
    65   32   96 1    
    66   33   34 2    
    67   33   35 1    
    68   35   36 1    
    69   35   37 1    
    70   35   97 1    
    71   36   98 1    
    72   36   99 1    
    73   36  100 1    
    74   37   38 am   BACKBONE|DICT|INTERRES
    75   37  101 1    
    76   38   39 2    
    77   38   40 1    
    78   40   41 1    
    79   40   42 1    
    80   40  102 1    
    81   41  103 1    
    82   41  104 1    
    83   41  105 1    
    84   42   43 am   BACKBONE|DICT|INTERRES
    85   42  106 1    
    86   43   44 2    
    87   43   45 1    
    88   45   46 1    
    89   45   49 1    
    90   45  107 1    
    91   46   47 1    
    92   46  108 1    
    93   46  109 1    
    94   47   48 1    
    95   48  110 1    
    96   48  111 1    
    97   49   50 am   BACKBONE|DICT|INTERRES
    98   49  112 1    
    99   50   51 2    
   100   50   52 1    
   101   52   53 1    
   102   52   54 1    
   103   52  113 1    
   104   53  114 1    
   105   53  115 1    
   106   53  116 1    
   107   54   55 am   BACKBONE|DICT|INTERRES
   108   54  117 1    
   109   55   56 2    
   110   55   57 1    
   111   57   58 1    
   112   57   59 1    
   113   57  118 1    
   114   58  119 1    
   115   58  120 1    
   116   58  121 1    
   117   59   60 am   BACKBONE|DICT|INTERRES
   118   59  122 1    
   119   60   61 2    
   120   60   62 1    
   121   62   63 1    
   122   62   64 1    
   123   62  123 1    
   124   63  124 1    
   125   63  125 1    
   126   63  126 1    
   127   64   65 am   BACKBONE|DICT|INTERRES
   128   64  127 1    
   129   65   66 2    
@<TRIPOS>SUBSTRUCTURE
     1 UNK         1 GROUP             0       ****    0 ROOT    
