@<TRIPOS>MOLECULE
3R134
127   129    1
SMALL
USER_CHARGES


@<TRIPOS>ATOM
      1 CA         34.5510  -46.2249  -50.8113 C.3       0 UNK        -0.1968 
      2 C          35.3094  -45.7315  -52.0349 C.2       0 UNK         0.4852 
      3 O          35.9672  -44.6920  -51.9710 O.2       0 UNK        -0.5359 
      4 N          35.2188  -46.4711  -53.1430 N.am      1 UNK        -0.4300 
      5 CA         35.8595  -46.1793  -54.4262 C.3       1 UNK         0.0863 
      6 C6         35.2945  -44.9323  -55.1679 C.3       11 UNK        -0.0953 
      7 S7         33.4691  -44.8572  -55.2910 S.3       11 UNK        -0.2369 
      8 C8         33.1027  -43.4097  -54.2526 C.3       11 UNK         0.0226 
      9 C9         31.6064  -43.1471  -54.1792 C.ar      11 UNK        -0.0699 
     10 C10        30.9009  -43.3672  -52.9922 C.ar      11 UNK        -0.0804 
     11 C11        29.5261  -43.1146  -52.9253 C.ar      11 UNK        -0.0871 
     12 C12        28.8549  -42.6572  -54.0644 C.ar      11 UNK        -0.1008 
     13 C13        29.5515  -42.4233  -55.2546 C.ar      11 UNK        -0.0735 
     14 C14        30.9287  -42.6608  -55.3001 C.ar      11 UNK        -0.0945 
     15 C15        28.8241  -41.8900  -56.4820 C.3       11 UNK         0.0169 
     16 S16        29.0061  -43.0098  -57.9022 S.3       11 UNK        -0.2669 
     17 C17        27.7744  -42.3344  -59.0667 C.3       11 UNK        -0.0850 
     18 CA         26.3677  -42.9698  -58.8997 C.3       10 UNK         0.0855 
     19 C          25.3699  -42.3914  -59.9448 C.2       10 UNK         0.5543 
     20 N          24.8044  -43.1915  -60.8403 N.am      10 UNK        -0.7343 
     21 O          25.1030  -41.1922  -59.9385 O.2       10 UNK        -0.5027 
     22 N          26.4353  -44.4392  -58.8429 N.am      10 UNK        -0.4495 
     23 C          25.5011  -45.2424  -58.3263 C.2       10 UNK         0.4903 
     24 O          24.4168  -44.8451  -57.8994 O.2       10 UNK        -0.4860 
     25 CA         25.8338  -46.7415  -58.2401 C.3       9 UNK         0.0227 
     26 CB         25.5377  -47.4633  -59.5687 C.3       9 UNK        -0.1964 
     27 N          27.1862  -47.0366  -57.7459 N.am      9 UNK        -0.4231 
     28 C          28.3770  -46.8468  -58.3357 C.2       9 UNK         0.5014 
     29 O          28.5246  -46.3170  -59.4381 O.2       9 UNK        -0.5270 
     30 CA         29.6140  -47.3513  -57.5670 C.3       8 UNK         0.0284 
     31 CB         30.1209  -46.2907  -56.5752 C.3       8 UNK        -0.1977 
     32 N          29.3556  -48.6074  -56.8563 N.am      8 UNK        -0.4342 
     33 C          29.1203  -49.7839  -57.4573 C.2       8 UNK         0.5039 
     34 O          29.1664  -49.9559  -58.6757 O.2       8 UNK        -0.5547 
     35 CA         28.7635  -50.9694  -56.5487 C.3       7 UNK         0.0281 
     36 CB         30.0331  -51.7075  -56.1014 C.3       7 UNK        -0.1963 
     37 N          27.9953  -50.5416  -55.3772 N.am      7 UNK        -0.4444 
     38 C          26.6755  -50.3021  -55.4004 C.2       7 UNK         0.5104 
     39 O          25.9619  -50.4950  -56.3848 O.2       7 UNK        -0.5100 
     40 CA         26.0388  -49.7323  -54.1191 C.3       6 UNK         0.0396 
     41 CB         25.5827  -50.8717  -53.1943 C.3       6 UNK        -0.1801 
     42 N          26.9235  -48.8307  -53.3778 N.am      6 UNK        -0.4747 
     43 C          27.3862  -47.6562  -53.8327 C.2       6 UNK         0.5012 
     44 O          27.0758  -47.1804  -54.9234 O.2       6 UNK        -0.5003 
     45 CA         28.4037  -46.9131  -52.9421 C.3       5 UNK         0.0782 
     46 C46        27.6845  -45.8504  -52.0762 C.3       11 UNK        -0.0868 
     47 S47        28.8243  -44.9688  -50.9549 S.3       11 UNK        -0.2515 
     48 C48        28.7792  -43.2696  -51.6062 C.3       11 UNK         0.0199 
     49 N          29.2207  -47.8253  -52.1306 N.am      5 UNK        -0.4607 
     50 C          30.0371  -48.7741  -52.6035 C.2       4 UNK         0.5031 
     51 O          30.1555  -49.0313  -53.8053 O.2       4 UNK        -0.5119 
     52 CA         30.8349  -49.5417  -51.5343 C.3       4 UNK         0.0263 
     53 CB         29.9132  -50.3188  -50.5688 C.3       4 UNK        -0.1967 
     54 N          31.8720  -50.3985  -52.1160 N.am      4 UNK        -0.4237 
     55 C          31.7466  -51.5645  -52.7628 C.2       3 UNK         0.4908 
     56 O          30.6938  -52.1959  -52.8687 O.2       3 UNK        -0.5102 
     57 CA         33.0371  -52.0923  -53.4283 C.3       3 UNK         0.0241 
     58 CB         32.8984  -53.5498  -53.9073 C.3       3 UNK        -0.1971 
     59 N          33.4538  -51.2597  -54.5635 N.am      3 UNK        -0.4139 
     60 C          33.9276  -50.0088  -54.4824 C.2       2 UNK         0.5016 
     61 O          34.1423  -49.4309  -53.4084 O.2       2 UNK        -0.5319 
     62 CA         34.1689  -49.2714  -55.8158 C.3       2 UNK         0.0286 
     63 CB         32.8988  -49.2512  -56.6850 C.3       2 UNK        -0.1963 
     64 N          34.5478  -47.8899  -55.5330 N.am      2 UNK        -0.4790 
     65 C          35.7859  -47.4739  -55.2460 C.2       1 UNK         0.5024 
     66 O          36.8088  -48.1123  -55.4977 O.2       1 UNK        -0.4888 
     67 H67        33.8060  -45.4886  -50.5107 H         1 UNK         0.0892 
     68 H68        34.0379  -47.1675  -51.0032 H         1 UNK         0.0892 
     69 H69        35.2378  -46.3761  -49.9790 H         1 UNK         0.0892 
     70 H70        34.7188  -47.3553  -53.1208 H         1 UNK         0.3107 
     71 H71        36.9182  -45.9965  -54.2294 H         1 UNK         0.0773 
     72 H72        35.6489  -44.0311  -54.6657 H         1 UNK         0.0680 
     73 H73        35.7066  -44.8743  -56.1769 H         1 UNK         0.0680 
     74 H74        33.6047  -42.5329  -54.6639 H         1 UNK         0.0650 
     75 H75        33.5159  -43.5673  -53.2554 H         1 UNK         0.0650 
     76 H76        31.4219  -43.7224  -52.1135 H         1 UNK         0.1397 
     77 H77        27.7929  -42.4578  -54.0178 H         1 UNK         0.1363 
     78 H78        31.4732  -42.4811  -56.2172 H         1 UNK         0.1355 
     79 H79        27.7626  -41.7543  -56.2695 H         1 UNK         0.0707 
     80 H80        29.2216  -40.9077  -56.7411 H         1 UNK         0.0707 
     81 H81        27.7262  -41.2501  -58.9485 H         1 UNK         0.1034 
     82 H82        28.1469  -42.5099  -60.0777 H         1 UNK         0.1034 
     83 H83        25.9885  -42.6435  -57.9294 H         1 UNK         0.0482 
     84 H84        24.1572  -42.8080  -61.5110 H         1 UNK         0.3460 
     85 H85        25.0176  -44.1759  -60.8456 H         1 UNK         0.3460 
     86 H86        27.2988  -44.8674  -59.1654 H         1 UNK         0.2989 
     87 H87        25.1643  -47.1638  -57.4889 H         1 UNK         0.0559 
     88 H88        24.4964  -47.3244  -59.8621 H         1 UNK         0.0848 
     89 H89        25.7095  -48.5363  -59.4808 H         1 UNK         0.0848 
     90 H90        26.1561  -47.0909  -60.3857 H         1 UNK         0.0848 
     91 H91        27.2080  -47.3573  -56.7800 H         1 UNK         0.3144 
     92 H92        30.4073  -47.5420  -58.2930 H         1 UNK         0.0727 
     93 H93        29.3216  -45.9077  -55.9407 H         1 UNK         0.0790 
     94 H94        30.5405  -45.4374  -57.1084 H         1 UNK         0.0790 
     95 H95        30.9076  -46.6796  -55.9290 H         1 UNK         0.0790 
     96 H96        29.3488  -48.5764  -55.8442 H         1 UNK         0.3215 
     97 H97        28.1595  -51.6672  -57.1333 H         1 UNK         0.0863 
     98 H98        29.7910  -52.5793  -55.4935 H         1 UNK         0.0808 
     99 H99        30.6855  -51.0612  -55.5157 H         1 UNK         0.0808 
    100 H100       30.6047  -52.0590  -56.9612 H         1 UNK         0.0808 
    101 H101       28.5236  -50.3256  -54.5402 H         1 UNK         0.3118 
    102 H102       25.1570  -49.1605  -54.4160 H         1 UNK         0.0546 
    103 H103       26.4248  -51.4677  -52.8400 H         1 UNK         0.0828 
    104 H104       24.9023  -51.5472  -53.7149 H         1 UNK         0.0828 
    105 H105       25.0509  -50.4885  -52.3233 H         1 UNK         0.0828 
    106 H106       27.2370  -49.1433  -52.4702 H         1 UNK         0.3005 
    107 H107       29.0887  -46.3889  -53.6119 H         1 UNK         0.1257 
    108 H108       26.9115  -46.3153  -51.4611 H         1 UNK         0.0775 
    109 H109       27.1704  -45.1277  -52.7131 H         1 UNK         0.0775 
    110 H110       27.7410  -42.9465  -51.6981 H         1 UNK         0.0840 
    111 H111       29.2358  -42.6058  -50.8707 H         1 UNK         0.0840 
    112 H112       29.1951  -47.6549  -51.1355 H         1 UNK         0.2987 
    113 H113       31.3747  -48.7937  -50.9515 H         1 UNK         0.0785 
    114 H114       29.3009  -49.6405  -49.9739 H         1 UNK         0.0798 
    115 H115       30.4913  -50.9224  -49.8690 H         1 UNK         0.0798 
    116 H116       29.2311  -50.9837  -51.0995 H         1 UNK         0.0798 
    117 H117       32.7784  -49.9490  -52.2262 H         1 UNK         0.3079 
    118 H118       33.8269  -52.0650  -52.6743 H         1 UNK         0.0794 
    119 H119       33.8413  -53.9301  -54.3007 H         1 UNK         0.0786 
    120 H120       32.1435  -53.6501  -54.6882 H         1 UNK         0.0786 
    121 H121       32.6052  -54.2040  -53.0851 H         1 UNK         0.0786 
    122 H122       33.2985  -51.6546  -55.4792 H         1 UNK         0.3032 
    123 H123       34.9736  -49.7760  -56.3554 H         1 UNK         0.1094 
    124 H124       33.0222  -48.6085  -57.5570 H         1 UNK         0.0794 
    125 H125       32.6510  -50.2453  -57.0573 H         1 UNK         0.0794 
    126 H126       32.0392  -48.8866  -56.1222 H         1 UNK         0.0794 
    127 H127       33.7903  -47.2657  -55.2876 H         1 UNK         0.3016 
@<TRIPOS>BOND
     1    1    2 1    
     2    1   67 1    
     3    1   68 1    
     4    1   69 1    
     5    2    3 2    
     6    2    4 am   BACKBONE|DICT|INTERRES
     7    4    5 1    
     8    4   70 1    
     9    5    6 1    
    10    5   65 1    
    11    5   71 1    
    12    6    7 1    
    13    6   72 1    
    14    6   73 1    
    15    7    8 1    
    16    8    9 1    
    17    8   74 1    
    18    8   75 1    
    19    9   10 ar   
    20    9   14 ar   
    21   10   11 ar   
    22   10   76 1    
    23   11   12 ar   
    24   11   48 1    
    25   12   13 ar   
    26   12   77 1    
    27   13   14 ar   
    28   13   15 1    
    29   14   78 1    
    30   15   16 1    
    31   15   79 1    
    32   15   80 1    
    33   16   17 1    
    34   17   18 1    
    35   17   81 1    
    36   17   82 1    
    37   18   19 1    
    38   18   22 1    
    39   18   83 1    
    40   19   20 am   BACKBONE|DICT|INTERRES
    41   19   21 2    
    42   20   84 1    
    43   20   85 1    
    44   22   23 am   BACKBONE|DICT|INTERRES
    45   22   86 1    
    46   23   24 2    
    47   23   25 1    
    48   25   26 1    
    49   25   27 1    
    50   25   87 1    
    51   26   88 1    
    52   26   89 1    
    53   26   90 1    
    54   27   28 am   BACKBONE|DICT|INTERRES
    55   27   91 1    
    56   28   29 2    
    57   28   30 1    
    58   30   31 1    
    59   30   32 1    
    60   30   92 1    
    61   31   93 1    
    62   31   94 1    
    63   31   95 1    
    64   32   33 am   BACKBONE|DICT|INTERRES
    65   32   96 1    
    66   33   34 2    
    67   33   35 1    
    68   35   36 1    
    69   35   37 1    
    70   35   97 1    
    71   36   98 1    
    72   36   99 1    
    73   36  100 1    
    74   37   38 am   BACKBONE|DICT|INTERRES
    75   37  101 1    
    76   38   39 2    
    77   38   40 1    
    78   40   41 1    
    79   40   42 1    
    80   40  102 1    
    81   41  103 1    
    82   41  104 1    
    83   41  105 1    
    84   42   43 am   BACKBONE|DICT|INTERRES
    85   42  106 1    
    86   43   44 2    
    87   43   45 1    
    88   45   46 1    
    89   45   49 1    
    90   45  107 1    
    91   46   47 1    
    92   46  108 1    
    93   46  109 1    
    94   47   48 1    
    95   48  110 1    
    96   48  111 1    
    97   49   50 am   BACKBONE|DICT|INTERRES
    98   49  112 1    
    99   50   51 2    
   100   50   52 1    
   101   52   53 1    
   102   52   54 1    
   103   52  113 1    
   104   53  114 1    
   105   53  115 1    
   106   53  116 1    
   107   54   55 am   BACKBONE|DICT|INTERRES
   108   54  117 1    
   109   55   56 2    
   110   55   57 1    
   111   57   58 1    
   112   57   59 1    
   113   57  118 1    
   114   58  119 1    
   115   58  120 1    
   116   58  121 1    
   117   59   60 am   BACKBONE|DICT|INTERRES
   118   59  122 1    
   119   60   61 2    
   120   60   62 1    
   121   62   63 1    
   122   62   64 1    
   123   62  123 1    
   124   63  124 1    
   125   63  125 1    
   126   63  126 1    
   127   64   65 am   BACKBONE|DICT|INTERRES
   128   64  127 1    
   129   65   66 2    
@<TRIPOS>SUBSTRUCTURE
     1 UNK         1 GROUP             0       ****    0 ROOT    
