@<TRIPOS>MOLECULE
3R134
127   129    1
SMALL
USER_CHARGES


@<TRIPOS>ATOM
      1 CA         33.6806  -47.3421  -51.4867 C.3       0 UNK        -0.1968 
      2 C          33.7401  -47.1135  -52.9890 C.2       0 UNK         0.4852 
      3 O          32.8812  -47.6140  -53.7158 O.2       0 UNK        -0.5359 
      4 N          34.7505  -46.3650  -53.4528 N.am      1 UNK        -0.4300 
      5 CA         34.9706  -45.9402  -54.8412 C.3       1 UNK         0.0863 
      6 C6         33.9153  -44.9134  -55.3367 C.3       11 UNK        -0.0953 
      7 S7         34.0454  -43.3601  -54.3932 S.3       11 UNK        -0.2369 
      8 C8         32.5981  -42.4383  -54.9973 C.3       11 UNK         0.0226 
      9 C9         31.2811  -42.9359  -54.4132 C.ar      11 UNK        -0.0699 
     10 C10        31.0939  -42.9950  -53.0276 C.ar      11 UNK        -0.0804 
     11 C11        29.8649  -43.3909  -52.4909 C.ar      11 UNK        -0.0871 
     12 C12        28.8096  -43.7027  -53.3526 C.ar      11 UNK        -0.1008 
     13 C13        28.9873  -43.6647  -54.7374 C.ar      11 UNK        -0.0735 
     14 C14        30.2285  -43.2905  -55.2620 C.ar      11 UNK        -0.0945 
     15 C15        27.8422  -44.0626  -55.6556 C.3       11 UNK         0.0169 
     16 S16        26.7911  -42.6528  -56.1108 S.3       11 UNK        -0.2669 
     17 C17        27.6763  -41.9789  -57.5581 C.3       11 UNK        -0.0850 
     18 CA         27.1006  -42.5035  -58.9013 C.3       10 UNK         0.0855 
     19 C          27.6038  -41.6512  -60.1043 C.2       10 UNK         0.5543 
     20 N          28.2445  -42.2295  -61.1134 N.am      10 UNK        -0.7343 
     21 O          27.3975  -40.4403  -60.1281 O.2       10 UNK        -0.5027 
     22 N          27.3128  -43.9560  -59.0713 N.am      10 UNK        -0.4495 
     23 C          26.4653  -44.7683  -59.7161 C.2       10 UNK         0.4903 
     24 O          25.3765  -44.4023  -60.1606 O.2       10 UNK        -0.4860 
     25 CA         26.8978  -46.2277  -59.9501 C.3       9 UNK         0.0227 
     26 CB         27.3003  -46.4285  -61.4214 C.3       9 UNK        -0.1964 
     27 N          27.9903  -46.7054  -59.0941 N.am      9 UNK        -0.4231 
     28 C          27.8356  -47.1318  -57.8334 C.2       9 UNK         0.5014 
     29 O          26.7914  -47.0082  -57.1900 O.2       9 UNK        -0.5270 
     30 CA         29.0597  -47.8185  -57.1939 C.3       8 UNK         0.0284 
     31 CB         29.9109  -46.8299  -56.3800 C.3       8 UNK        -0.1977 
     32 N          28.6793  -48.9294  -56.3211 N.am      8 UNK        -0.4342 
     33 C          28.0665  -50.0546  -56.7137 C.2       8 UNK         0.5039 
     34 O          27.8031  -50.3213  -57.8874 O.2       8 UNK        -0.5547 
     35 CA         27.6945  -51.0619  -55.6150 C.3       7 UNK         0.0281 
     36 CB         28.8777  -52.0010  -55.3227 C.3       7 UNK        -0.1963 
     37 N          27.2867  -50.3933  -54.3767 N.am      7 UNK        -0.4444 
     38 C          26.0218  -50.0866  -54.0557 C.2       7 UNK         0.5104 
     39 O          25.0535  -50.3489  -54.7701 O.2       7 UNK        -0.5100 
     40 CA         25.7775  -49.4010  -52.6964 C.3       6 UNK         0.0396 
     41 CB         25.2986  -50.4318  -51.6611 C.3       6 UNK        -0.1801 
     42 N          26.9608  -48.7158  -52.1706 N.am      6 UNK        -0.4747 
     43 C          27.3772  -47.5038  -52.5665 C.2       6 UNK         0.5012 
     44 O          26.7553  -46.7961  -53.3571 O.2       6 UNK        -0.5003 
     45 CA         28.7257  -47.0014  -52.0035 C.3       5 UNK         0.0782 
     46 C46        28.4923  -46.0378  -50.8147 C.3       11 UNK        -0.0868 
     47 S47        30.0116  -45.1431  -50.3415 S.3       11 UNK        -0.2515 
     48 C48        29.6771  -43.4686  -50.9823 C.3       11 UNK         0.0199 
     49 N          29.6530  -48.0862  -51.6493 N.am      5 UNK        -0.4607 
     50 C          30.1307  -48.9893  -52.5120 C.2       4 UNK         0.5031 
     51 O          29.7862  -49.0555  -53.6954 O.2       4 UNK        -0.5119 
     52 CA         31.0983  -50.0345  -51.9553 C.3       4 UNK         0.0263 
     53 CB         30.3314  -51.2171  -51.3373 C.3       4 UNK        -0.1967 
     54 N          31.9136  -50.4982  -53.0686 N.am      4 UNK        -0.4237 
     55 C          33.1453  -51.0098  -52.9935 C.2       3 UNK         0.4908 
     56 O          33.7537  -51.2041  -51.9410 O.2       3 UNK        -0.5102 
     57 CA         33.8091  -51.3476  -54.3312 C.3       3 UNK         0.0241 
     58 CB         33.1530  -52.6111  -54.9333 C.3       3 UNK        -0.1971 
     59 N          33.7266  -50.1948  -55.2350 N.am      3 UNK        -0.4139 
     60 C          34.2499  -50.1244  -56.4676 C.2       2 UNK         0.5016 
     61 O          34.8871  -51.0320  -57.0032 O.2       2 UNK        -0.5319 
     62 CA         34.0313  -48.8142  -57.2443 C.3       2 UNK         0.0286 
     63 CB         32.6974  -48.8679  -58.0060 C.3       2 UNK        -0.1963 
     64 N          34.0540  -47.6290  -56.3846 N.am      2 UNK        -0.4790 
     65 C          35.1513  -47.1483  -55.7833 C.2       1 UNK         0.5024 
     66 O          36.2768  -47.6250  -55.9376 O.2       1 UNK        -0.4888 
     67 H67        34.3967  -46.7190  -50.9514 H         1 UNK         0.0892 
     68 H68        32.6847  -47.1046  -51.1135 H         1 UNK         0.0892 
     69 H69        33.8975  -48.3845  -51.2563 H         1 UNK         0.0892 
     70 H70        35.4345  -46.0164  -52.7963 H         1 UNK         0.3107 
     71 H71        35.9369  -45.4324  -54.8433 H         1 UNK         0.0773 
     72 H72        34.0661  -44.6784  -56.3920 H         1 UNK         0.0680 
     73 H73        32.9007  -45.3043  -55.2408 H         1 UNK         0.0680 
     74 H74        32.5851  -42.4728  -56.0878 H         1 UNK         0.0650 
     75 H75        32.7196  -41.3889  -54.7260 H         1 UNK         0.0650 
     76 H76        31.9083  -42.7301  -52.3672 H         1 UNK         0.1397 
     77 H77        27.8493  -43.9936  -52.9501 H         1 UNK         0.1363 
     78 H78        30.3745  -43.2631  -56.3321 H         1 UNK         0.1355 
     79 H79        27.2219  -44.8176  -55.1703 H         1 UNK         0.0707 
     80 H80        28.2303  -44.5307  -56.5572 H         1 UNK         0.0707 
     81 H81        27.5793  -40.8929  -57.4992 H         1 UNK         0.1034 
     82 H82        28.7443  -42.1806  -57.4887 H         1 UNK         0.1034 
     83 H83        26.0246  -42.3212  -58.8671 H         1 UNK         0.0482 
     84 H84        28.4113  -43.2220  -61.1135 H         1 UNK         0.3460 
     85 H85        28.5582  -41.6642  -61.8868 H         1 UNK         0.3460 
     86 H86        28.1968  -44.3265  -58.7598 H         1 UNK         0.2989 
     87 H87        26.0213  -46.8513  -59.7597 H         1 UNK         0.0559 
     88 H88        26.4998  -46.1156  -62.0936 H         1 UNK         0.0848 
     89 H89        27.5054  -47.4773  -61.6375 H         1 UNK         0.0848 
     90 H90        28.1878  -45.8513  -61.6832 H         1 UNK         0.0848 
     91 H91        28.8875  -46.8325  -59.5410 H         1 UNK         0.3144 
     92 H92        29.6763  -48.2299  -57.9951 H         1 UNK         0.0727 
     93 H93        29.3611  -46.4481  -55.5198 H         1 UNK         0.0790 
     94 H94        30.2243  -45.9790  -56.9854 H         1 UNK         0.0790 
     95 H95        30.8135  -47.3038  -55.9943 H         1 UNK         0.0790 
     96 H96        28.9066  -48.8270  -55.3358 H         1 UNK         0.3215 
     97 H97        26.8692  -51.6718  -55.9896 H         1 UNK         0.0863 
     98 H98        29.7492  -51.4576  -54.9590 H         1 UNK         0.0808 
     99 H99        29.1814  -52.5354  -56.2238 H         1 UNK         0.0808 
    100 H100       28.6143  -52.7499  -54.5757 H         1 UNK         0.0808 
    101 H101       28.0325  -50.0701  -53.7730 H         1 UNK         0.3118 
    102 H102       24.9796  -48.6684  -52.8362 H         1 UNK         0.0546 
    103 H103       26.0521  -51.1976  -51.4727 H         1 UNK         0.0828 
    104 H104       24.3973  -50.9408  -52.0058 H         1 UNK         0.0828 
    105 H105       25.0555  -49.9569  -50.7105 H         1 UNK         0.0828 
    106 H106       27.5220  -49.2191  -51.4988 H         1 UNK         0.3005 
    107 H107       29.1978  -46.4408  -52.8138 H         1 UNK         0.1257 
    108 H108       28.1358  -46.5901  -49.9433 H         1 UNK         0.0775 
    109 H109       27.7084  -45.3131  -51.0407 H         1 UNK         0.0775 
    110 H110       28.6696  -43.1544  -50.7052 H         1 UNK         0.0840 
    111 H111       30.3530  -42.7678  -50.4898 H         1 UNK         0.0840 
    112 H112       29.9750  -48.0962  -50.6923 H         1 UNK         0.2987 
    113 H113       31.7344  -49.5670  -51.2019 H         1 UNK         0.0785 
    114 H114       29.7077  -50.8905  -50.5044 H         1 UNK         0.0798 
    115 H115       31.0155  -51.9723  -50.9499 H         1 UNK         0.0798 
    116 H116       29.6803  -51.7012  -52.0665 H         1 UNK         0.0798 
    117 H117       31.5010  -50.3066  -53.9727 H         1 UNK         0.3079 
    118 H118       34.8640  -51.5534  -54.1392 H         1 UNK         0.0794 
    119 H119       33.7244  -53.0038  -55.7737 H         1 UNK         0.0786 
    120 H120       32.1391  -52.4152  -55.2830 H         1 UNK         0.0786 
    121 H121       33.0945  -53.4121  -54.1948 H         1 UNK         0.0786 
    122 H122       33.3018  -49.3564  -54.8467 H         1 UNK         0.3032 
    123 H123       34.8401  -48.7203  -57.9729 H         1 UNK         0.1094 
    124 H124       31.8583  -49.0440  -57.3329 H         1 UNK         0.0794 
    125 H125       32.5088  -47.9437  -58.5526 H         1 UNK         0.0794 
    126 H126       32.7007  -49.6802  -58.7343 H         1 UNK         0.0794 
    127 H127       33.1642  -47.2209  -56.1347 H         1 UNK         0.3016 
@<TRIPOS>BOND
     1    1    2 1    
     2    1   67 1    
     3    1   68 1    
     4    1   69 1    
     5    2    3 2    
     6    2    4 am   BACKBONE|DICT|INTERRES
     7    4    5 1    
     8    4   70 1    
     9    5    6 1    
    10    5   65 1    
    11    5   71 1    
    12    6    7 1    
    13    6   72 1    
    14    6   73 1    
    15    7    8 1    
    16    8    9 1    
    17    8   74 1    
    18    8   75 1    
    19    9   10 ar   
    20    9   14 ar   
    21   10   11 ar   
    22   10   76 1    
    23   11   12 ar   
    24   11   48 1    
    25   12   13 ar   
    26   12   77 1    
    27   13   14 ar   
    28   13   15 1    
    29   14   78 1    
    30   15   16 1    
    31   15   79 1    
    32   15   80 1    
    33   16   17 1    
    34   17   18 1    
    35   17   81 1    
    36   17   82 1    
    37   18   19 1    
    38   18   22 1    
    39   18   83 1    
    40   19   20 am   BACKBONE|DICT|INTERRES
    41   19   21 2    
    42   20   84 1    
    43   20   85 1    
    44   22   23 am   BACKBONE|DICT|INTERRES
    45   22   86 1    
    46   23   24 2    
    47   23   25 1    
    48   25   26 1    
    49   25   27 1    
    50   25   87 1    
    51   26   88 1    
    52   26   89 1    
    53   26   90 1    
    54   27   28 am   BACKBONE|DICT|INTERRES
    55   27   91 1    
    56   28   29 2    
    57   28   30 1    
    58   30   31 1    
    59   30   32 1    
    60   30   92 1    
    61   31   93 1    
    62   31   94 1    
    63   31   95 1    
    64   32   33 am   BACKBONE|DICT|INTERRES
    65   32   96 1    
    66   33   34 2    
    67   33   35 1    
    68   35   36 1    
    69   35   37 1    
    70   35   97 1    
    71   36   98 1    
    72   36   99 1    
    73   36  100 1    
    74   37   38 am   BACKBONE|DICT|INTERRES
    75   37  101 1    
    76   38   39 2    
    77   38   40 1    
    78   40   41 1    
    79   40   42 1    
    80   40  102 1    
    81   41  103 1    
    82   41  104 1    
    83   41  105 1    
    84   42   43 am   BACKBONE|DICT|INTERRES
    85   42  106 1    
    86   43   44 2    
    87   43   45 1    
    88   45   46 1    
    89   45   49 1    
    90   45  107 1    
    91   46   47 1    
    92   46  108 1    
    93   46  109 1    
    94   47   48 1    
    95   48  110 1    
    96   48  111 1    
    97   49   50 am   BACKBONE|DICT|INTERRES
    98   49  112 1    
    99   50   51 2    
   100   50   52 1    
   101   52   53 1    
   102   52   54 1    
   103   52  113 1    
   104   53  114 1    
   105   53  115 1    
   106   53  116 1    
   107   54   55 am   BACKBONE|DICT|INTERRES
   108   54  117 1    
   109   55   56 2    
   110   55   57 1    
   111   57   58 1    
   112   57   59 1    
   113   57  118 1    
   114   58  119 1    
   115   58  120 1    
   116   58  121 1    
   117   59   60 am   BACKBONE|DICT|INTERRES
   118   59  122 1    
   119   60   61 2    
   120   60   62 1    
   121   62   63 1    
   122   62   64 1    
   123   62  123 1    
   124   63  124 1    
   125   63  125 1    
   126   63  126 1    
   127   64   65 am   BACKBONE|DICT|INTERRES
   128   64  127 1    
   129   65   66 2    
@<TRIPOS>SUBSTRUCTURE
     1 UNK         1 GROUP             0       ****    0 ROOT    
