@<TRIPOS>MOLECULE
3R134
127   129    1
SMALL
USER_CHARGES


@<TRIPOS>ATOM
      1 CA         32.7437  -46.5133  -50.7938 C.3       0 UNK        -0.1968 
      2 C          33.9946  -45.9804  -51.4768 C.2       0 UNK         0.4852 
      3 O          34.7142  -45.1701  -50.8904 O.2       0 UNK        -0.5359 
      4 N          34.2425  -46.4296  -52.7110 N.am      1 UNK        -0.4300 
      5 CA         35.3971  -46.0747  -53.5401 C.3       1 UNK         0.0863 
      6 C6         34.9752  -45.4472  -54.9028 C.3       11 UNK        -0.0953 
      7 S7         33.8049  -44.0579  -54.7296 S.3       11 UNK        -0.2369 
      8 C8         32.2626  -44.9254  -55.1560 C.3       11 UNK         0.0226 
      9 C9         31.0263  -44.1984  -54.6563 C.ar      11 UNK        -0.0699 
     10 C10        30.7725  -44.1208  -53.2862 C.ar      11 UNK        -0.0804 
     11 C11        29.5908  -43.5452  -52.8148 C.ar      11 UNK        -0.0871 
     12 C12        28.6738  -43.0126  -53.7261 C.ar      11 UNK        -0.1008 
     13 C13        28.9190  -43.0664  -55.1022 C.ar      11 UNK        -0.0735 
     14 C14        30.0991  -43.6702  -55.5580 C.ar      11 UNK        -0.0945 
     15 C15        27.8522  -42.5373  -56.0616 C.3       11 UNK         0.0169 
     16 S16        28.4845  -41.9907  -57.6864 S.3       11 UNK        -0.2669 
     17 C17        26.9267  -41.7758  -58.6192 C.3       11 UNK        -0.0850 
     18 CA         26.5718  -42.9679  -59.5502 C.3       10 UNK         0.0855 
     19 C          27.5306  -43.0844  -60.7717 C.2       10 UNK         0.5543 
     20 N          28.2158  -44.2031  -60.9753 N.am      10 UNK        -0.7343 
     21 O          27.6382  -42.1472  -61.5590 O.2       10 UNK        -0.5027 
     22 N          26.3916  -44.2114  -58.7857 N.am      10 UNK        -0.4495 
     23 C          25.5916  -45.2274  -59.1220 C.2       10 UNK         0.4903 
     24 O          24.8954  -45.2442  -60.1386 O.2       10 UNK        -0.4860 
     25 CA         25.5707  -46.4219  -58.1477 C.3       9 UNK         0.0227 
     26 CB         24.3880  -47.3736  -58.4058 C.3       9 UNK        -0.1964 
     27 N          26.8109  -47.2001  -58.1690 N.am      9 UNK        -0.4231 
     28 C          27.9959  -46.8140  -57.6801 C.2       9 UNK         0.5014 
     29 O          28.2076  -45.6940  -57.2179 O.2       9 UNK        -0.5270 
     30 CA         29.1156  -47.8710  -57.6866 C.3       8 UNK         0.0284 
     31 CB         30.4431  -47.3277  -57.1271 C.3       8 UNK        -0.1977 
     32 N          28.7204  -49.0383  -56.9001 N.am      8 UNK        -0.4342 
     33 C          27.9227  -50.0275  -57.3206 C.2       8 UNK         0.5039 
     34 O          27.4638  -50.0949  -58.4620 O.2       8 UNK        -0.5547 
     35 CA         27.5218  -51.0724  -56.2728 C.3       7 UNK         0.0281 
     36 CB         28.7135  -51.9662  -55.8883 C.3       7 UNK        -0.1963 
     37 N          26.9907  -50.4125  -55.0798 N.am      7 UNK        -0.4444 
     38 C          25.7102  -50.0515  -54.9182 C.2       7 UNK         0.5104 
     39 O          24.8233  -50.2904  -55.7379 O.2       7 UNK        -0.5100 
     40 CA         25.3426  -49.3159  -53.6161 C.3       6 UNK         0.0396 
     41 CB         24.7782  -50.3074  -52.5861 C.3       6 UNK        -0.1801 
     42 N          26.4703  -48.5964  -53.0189 N.am      6 UNK        -0.4747 
     43 C          26.9446  -47.4215  -53.4602 C.2       6 UNK         0.5012 
     44 O          26.4422  -46.7904  -54.3890 O.2       6 UNK        -0.5003 
     45 CA         28.1937  -46.8637  -52.7419 C.3       5 UNK         0.0782 
     46 C46        27.7558  -45.9091  -51.5986 C.3       11 UNK        -0.0868 
     47 S47        29.1553  -45.2216  -50.6464 S.3       11 UNK        -0.2515 
     48 C48        29.2922  -43.5342  -51.3231 C.3       11 UNK         0.0199 
     49 N          29.1118  -47.9105  -52.2625 N.am      5 UNK        -0.4607 
     50 C          29.6943  -48.8504  -53.0175 C.2       4 UNK         0.5031 
     51 O          29.4570  -49.0127  -54.2153 O.2       4 UNK        -0.5119 
     52 CA         30.6405  -49.8200  -52.2902 C.3       4 UNK         0.0263 
     53 CB         29.8264  -50.9350  -51.6127 C.3       4 UNK        -0.1967 
     54 N          31.6240  -50.4354  -53.1869 N.am      4 UNK        -0.4237 
     55 C          32.5816  -49.7753  -53.8498 C.2       3 UNK         0.4908 
     56 O          32.7656  -48.5560  -53.7672 O.2       3 UNK        -0.5102 
     57 CA         33.4896  -50.6235  -54.7526 C.3       3 UNK         0.0241 
     58 CB         32.7679  -51.0186  -56.0528 C.3       3 UNK        -0.1971 
     59 N          34.6683  -49.8292  -55.0781 N.am      3 UNK        -0.4139 
     60 C          35.9438  -50.2336  -55.0534 C.2       2 UNK         0.5016 
     61 O          36.2925  -51.4024  -54.8824 O.2       2 UNK        -0.5319 
     62 CA         37.0175  -49.1391  -55.2355 C.3       2 UNK         0.0286 
     63 CB         37.5608  -49.1507  -56.6735 C.3       2 UNK        -0.1963 
     64 N          36.5107  -47.7960  -54.9229 N.am      2 UNK        -0.4790 
     65 C          36.2357  -47.3627  -53.6827 C.2       1 UNK         0.5024 
     66 O          36.5753  -47.9786  -52.6699 O.2       1 UNK        -0.4888 
     67 H67        33.0038  -47.3126  -50.1008 H         1 UNK         0.0892 
     68 H68        32.2514  -45.7196  -50.2323 H         1 UNK         0.0892 
     69 H69        32.0286  -46.9025  -51.5183 H         1 UNK         0.0892 
     70 H70        33.6402  -47.1546  -53.1015 H         1 UNK         0.3107 
     71 H71        36.0277  -45.3511  -53.0199 H         1 UNK         0.0773 
     72 H72        34.5206  -46.1906  -55.5603 H         1 UNK         0.0680 
     73 H73        35.8543  -45.0700  -55.4282 H         1 UNK         0.0680 
     74 H74        32.2666  -45.9258  -54.7211 H         1 UNK         0.0650 
     75 H75        32.2268  -45.0595  -56.2377 H         1 UNK         0.0650 
     76 H76        31.4802  -44.5425  -52.5868 H         1 UNK         0.1397 
     77 H77        27.7524  -42.5760  -53.3651 H         1 UNK         0.1363 
     78 H78        30.2824  -43.7669  -56.6186 H         1 UNK         0.1355 
     79 H79        27.1133  -43.3259  -56.2060 H         1 UNK         0.0707 
     80 H80        27.3262  -41.6982  -55.6035 H         1 UNK         0.0707 
     81 H81        26.1087  -41.6044  -57.9178 H         1 UNK         0.1034 
     82 H82        27.0007  -40.8535  -59.1986 H         1 UNK         0.1034 
     83 H83        25.6010  -42.7266  -59.9874 H         1 UNK         0.0482 
     84 H84        28.8285  -44.2723  -61.7723 H         1 UNK         0.3460 
     85 H85        28.1311  -44.9701  -60.3290 H         1 UNK         0.3460 
     86 H86        27.0270  -44.3554  -58.0050 H         1 UNK         0.2989 
     87 H87        25.4488  -46.0154  -57.1411 H         1 UNK         0.0559 
     88 H88        24.4606  -47.8549  -59.3819 H         1 UNK         0.0848 
     89 H89        23.4394  -46.8358  -58.3760 H         1 UNK         0.0848 
     90 H90        24.3378  -48.1570  -57.6489 H         1 UNK         0.0848 
     91 H91        26.7497  -48.1503  -58.5210 H         1 UNK         0.3144 
     92 H92        29.2830  -48.1720  -58.7228 H         1 UNK         0.0727 
     93 H93        31.2328  -48.0765  -57.1750 H         1 UNK         0.0790 
     94 H94        30.3396  -47.0174  -56.0862 H         1 UNK         0.0790 
     95 H95        30.7806  -46.4617  -57.6974 H         1 UNK         0.0790 
     96 H96        29.0136  -49.0349  -55.9223 H         1 UNK         0.3215 
     97 H97        26.7511  -51.7111  -56.7104 H         1 UNK         0.0863 
     98 H98        28.4097  -52.7507  -55.1952 H         1 UNK         0.0808 
     99 H99        29.5163  -51.3994  -55.4174 H         1 UNK         0.0808 
    100 H100       29.1327  -52.4559  -56.7683 H         1 UNK         0.0808 
    101 H101       27.6695  -50.0958  -54.3991 H         1 UNK         0.3118 
    102 H102       24.5582  -48.5946  -53.8557 H         1 UNK         0.0546 
    103 H103       25.5168  -51.0561  -52.2966 H         1 UNK         0.0828 
    104 H104       23.9163  -50.8404  -52.9901 H         1 UNK         0.0828 
    105 H105       24.4450  -49.7958  -51.6829 H         1 UNK         0.0828 
    106 H106       26.9339  -49.0361  -52.2370 H         1 UNK         0.3005 
    107 H107       28.7406  -46.2809  -53.4872 H         1 UNK         0.1257 
    108 H108       27.1112  -46.4348  -50.8914 H         1 UNK         0.0775 
    109 H109       27.1559  -45.0876  -51.9954 H         1 UNK         0.0775 
    110 H110       28.3731  -42.9864  -51.1090 H         1 UNK         0.0840 
    111 H111       30.0927  -43.0069  -50.8023 H         1 UNK         0.0840 
    112 H112       29.3484  -47.8543  -51.2823 H         1 UNK         0.2987 
    113 H113       31.1866  -49.2646  -51.5253 H         1 UNK         0.0785 
    114 H114       30.4717  -51.6152  -51.0563 H         1 UNK         0.0798 
    115 H115       29.2656  -51.5246  -52.3396 H         1 UNK         0.0798 
    116 H116       29.1079  -50.5247  -50.9018 H         1 UNK         0.0798 
    117 H117       31.5341  -51.4299  -53.3333 H         1 UNK         0.3079 
    118 H118       33.7823  -51.5211  -54.2036 H         1 UNK         0.0794 
    119 H119       31.9111  -51.6608  -55.8490 H         1 UNK         0.0786 
    120 H120       33.4308  -51.5701  -56.7198 H         1 UNK         0.0786 
    121 H121       32.4020  -50.1453  -56.5935 H         1 UNK         0.0786 
    122 H122       34.4835  -48.8392  -55.1570 H         1 UNK         0.3032 
    123 H123       37.8394  -49.3710  -54.5539 H         1 UNK         0.1094 
    124 H124       38.3624  -48.4229  -56.8011 H         1 UNK         0.0794 
    125 H125       37.9713  -50.1294  -56.9266 H         1 UNK         0.0794 
    126 H126       36.7819  -48.9262  -57.4033 H         1 UNK         0.0794 
    127 H127       36.2412  -47.2220  -55.7093 H         1 UNK         0.3016 
@<TRIPOS>BOND
     1    1    2 1    
     2    1   67 1    
     3    1   68 1    
     4    1   69 1    
     5    2    3 2    
     6    2    4 am   BACKBONE|DICT|INTERRES
     7    4    5 1    
     8    4   70 1    
     9    5    6 1    
    10    5   65 1    
    11    5   71 1    
    12    6    7 1    
    13    6   72 1    
    14    6   73 1    
    15    7    8 1    
    16    8    9 1    
    17    8   74 1    
    18    8   75 1    
    19    9   10 ar   
    20    9   14 ar   
    21   10   11 ar   
    22   10   76 1    
    23   11   12 ar   
    24   11   48 1    
    25   12   13 ar   
    26   12   77 1    
    27   13   14 ar   
    28   13   15 1    
    29   14   78 1    
    30   15   16 1    
    31   15   79 1    
    32   15   80 1    
    33   16   17 1    
    34   17   18 1    
    35   17   81 1    
    36   17   82 1    
    37   18   19 1    
    38   18   22 1    
    39   18   83 1    
    40   19   20 am   BACKBONE|DICT|INTERRES
    41   19   21 2    
    42   20   84 1    
    43   20   85 1    
    44   22   23 am   BACKBONE|DICT|INTERRES
    45   22   86 1    
    46   23   24 2    
    47   23   25 1    
    48   25   26 1    
    49   25   27 1    
    50   25   87 1    
    51   26   88 1    
    52   26   89 1    
    53   26   90 1    
    54   27   28 am   BACKBONE|DICT|INTERRES
    55   27   91 1    
    56   28   29 2    
    57   28   30 1    
    58   30   31 1    
    59   30   32 1    
    60   30   92 1    
    61   31   93 1    
    62   31   94 1    
    63   31   95 1    
    64   32   33 am   BACKBONE|DICT|INTERRES
    65   32   96 1    
    66   33   34 2    
    67   33   35 1    
    68   35   36 1    
    69   35   37 1    
    70   35   97 1    
    71   36   98 1    
    72   36   99 1    
    73   36  100 1    
    74   37   38 am   BACKBONE|DICT|INTERRES
    75   37  101 1    
    76   38   39 2    
    77   38   40 1    
    78   40   41 1    
    79   40   42 1    
    80   40  102 1    
    81   41  103 1    
    82   41  104 1    
    83   41  105 1    
    84   42   43 am   BACKBONE|DICT|INTERRES
    85   42  106 1    
    86   43   44 2    
    87   43   45 1    
    88   45   46 1    
    89   45   49 1    
    90   45  107 1    
    91   46   47 1    
    92   46  108 1    
    93   46  109 1    
    94   47   48 1    
    95   48  110 1    
    96   48  111 1    
    97   49   50 am   BACKBONE|DICT|INTERRES
    98   49  112 1    
    99   50   51 2    
   100   50   52 1    
   101   52   53 1    
   102   52   54 1    
   103   52  113 1    
   104   53  114 1    
   105   53  115 1    
   106   53  116 1    
   107   54   55 am   BACKBONE|DICT|INTERRES
   108   54  117 1    
   109   55   56 2    
   110   55   57 1    
   111   57   58 1    
   112   57   59 1    
   113   57  118 1    
   114   58  119 1    
   115   58  120 1    
   116   58  121 1    
   117   59   60 am   BACKBONE|DICT|INTERRES
   118   59  122 1    
   119   60   61 2    
   120   60   62 1    
   121   62   63 1    
   122   62   64 1    
   123   62  123 1    
   124   63  124 1    
   125   63  125 1    
   126   63  126 1    
   127   64   65 am   BACKBONE|DICT|INTERRES
   128   64  127 1    
   129   65   66 2    
@<TRIPOS>SUBSTRUCTURE
     1 UNK         1 GROUP             0       ****    0 ROOT    
