@<TRIPOS>MOLECULE
3R134
127   129    1
SMALL
USER_CHARGES


@<TRIPOS>ATOM
      1 CA         36.9421  -44.9088  -49.8415 C.3       0 UNK        -0.1968 
      2 C          36.5061  -45.5086  -51.1702 C.2       0 UNK         0.4852 
      3 O          37.2212  -46.3432  -51.7265 O.2       0 UNK        -0.5359 
      4 N          35.3409  -45.0869  -51.6812 N.am      1 UNK        -0.4300 
      5 CA         34.7561  -45.5544  -52.9463 C.3       1 UNK         0.0863 
      6 C6         33.6125  -44.6320  -53.4264 C.3       11 UNK        -0.0953 
      7 S7         34.2035  -42.9373  -53.7601 S.3       11 UNK        -0.2369 
      8 C8         32.7815  -41.9306  -53.2242 C.3       11 UNK         0.0226 
      9 C9         31.5050  -42.3132  -53.9602 C.ar      11 UNK        -0.0699 
     10 C10        30.4052  -42.8094  -53.2533 C.ar      11 UNK        -0.0804 
     11 C11        29.2538  -43.2305  -53.9291 C.ar      11 UNK        -0.0871 
     12 C12        29.2013  -43.1130  -55.3218 C.ar      11 UNK        -0.1008 
     13 C13        30.2855  -42.5954  -56.0367 C.ar      11 UNK        -0.0735 
     14 C14        31.4333  -42.1941  -55.3510 C.ar      11 UNK        -0.0945 
     15 C15        30.2178  -42.4892  -57.5508 C.3       11 UNK         0.0169 
     16 S16        30.6296  -44.0882  -58.3140 S.3       11 UNK        -0.2669 
     17 C17        29.6361  -44.0696  -59.8477 C.3       11 UNK        -0.0850 
     18 CA         28.0950  -44.0802  -59.6306 C.3       10 UNK         0.0855 
     19 C          27.3284  -44.1927  -60.9827 C.2       10 UNK         0.5543 
     20 N          26.3585  -45.0862  -61.1401 N.am      10 UNK        -0.7343 
     21 O          27.6164  -43.4429  -61.9124 O.2       10 UNK        -0.5027 
     22 N          27.6770  -45.0504  -58.6053 N.am      10 UNK        -0.4495 
     23 C          26.5767  -44.9364  -57.8535 C.2       10 UNK         0.4903 
     24 O          25.8153  -43.9683  -57.8923 O.2       10 UNK        -0.4860 
     25 CA         26.2762  -46.1227  -56.9203 C.3       9 UNK         0.0227 
     26 CB         24.9093  -46.0072  -56.2152 C.3       9 UNK        -0.1964 
     27 N          26.3961  -47.4192  -57.5975 N.am      9 UNK        -0.4231 
     28 C          25.7579  -47.8398  -58.6991 C.2       9 UNK         0.5014 
     29 O          24.9821  -47.1386  -59.3496 O.2       9 UNK        -0.5270 
     30 CA         26.0153  -49.2860  -59.1714 C.3       8 UNK         0.0284 
     31 CB         27.2059  -49.3356  -60.1502 C.3       8 UNK        -0.1977 
     32 N          26.1532  -50.2847  -58.0951 N.am      8 UNK        -0.4342 
     33 C          27.1131  -50.3695  -57.1651 C.2       8 UNK         0.5039 
     34 O          28.0662  -49.5930  -57.0999 O.2       8 UNK        -0.5547 
     35 CA         26.9780  -51.4839  -56.1235 C.3       7 UNK         0.0281 
     36 CB         27.6914  -52.7605  -56.5974 C.3       7 UNK        -0.1963 
     37 N          27.5999  -51.0161  -54.8874 N.am      7 UNK        -0.4444 
     38 C          26.9913  -50.9283  -53.7000 C.2       7 UNK         0.5104 
     39 O          25.8542  -51.3474  -53.4788 O.2       7 UNK        -0.5100 
     40 CA         27.7718  -50.2527  -52.5585 C.3       6 UNK         0.0396 
     41 CB         28.6587  -51.2769  -51.8344 C.3       6 UNK        -0.1801 
     42 N          28.5921  -49.1160  -52.9856 N.am      6 UNK        -0.4747 
     43 C          28.1173  -47.9562  -53.4689 C.2       6 UNK         0.5012 
     44 O          26.9211  -47.7274  -53.6490 O.2       6 UNK        -0.5003 
     45 CA         29.1565  -46.8746  -53.8171 C.3       5 UNK         0.0782 
     46 C46        29.6634  -46.1174  -52.5664 C.3       11 UNK        -0.0868 
     47 S47        28.4663  -44.9556  -51.8214 S.3       11 UNK        -0.2515 
     48 C48        28.0511  -43.7987  -53.1776 C.3       11 UNK         0.0199 
     49 N          30.2719  -47.4824  -54.5357 N.am      5 UNK        -0.4607 
     50 C          30.3904  -47.5211  -55.8680 C.2       4 UNK         0.5031 
     51 O          29.6185  -46.9518  -56.6397 O.2       4 UNK        -0.5119 
     52 CA         31.5743  -48.3213  -56.4428 C.3       4 UNK         0.0263 
     53 CB         32.6699  -47.3689  -56.9487 C.3       4 UNK        -0.1967 
     54 N          32.1617  -49.2690  -55.4872 N.am      4 UNK        -0.4237 
     55 C          31.5781  -50.4171  -55.1085 C.2       3 UNK         0.4908 
     56 O          30.4964  -50.8112  -55.5378 O.2       3 UNK        -0.5102 
     57 CA         32.2912  -51.2625  -54.0394 C.3       3 UNK         0.0241 
     58 CB         33.2332  -52.2797  -54.7027 C.3       3 UNK        -0.1971 
     59 N          33.0364  -50.4884  -53.0442 N.am      3 UNK        -0.4139 
     60 C          32.5420  -49.5128  -52.2693 C.2       2 UNK         0.5016 
     61 O          31.3768  -49.1163  -52.3256 O.2       2 UNK        -0.5319 
     62 CA         33.5181  -48.8350  -51.2896 C.3       2 UNK         0.0286 
     63 CB         34.8190  -49.6343  -51.0490 C.3       2 UNK        -0.1963 
     64 N          33.8542  -47.4595  -51.6776 N.am      2 UNK        -0.4790 
     65 C          34.2848  -47.0227  -52.8741 C.2       1 UNK         0.5024 
     66 O          34.3473  -47.7237  -53.8864 O.2       1 UNK        -0.4888 
     67 H67        37.9035  -44.4084  -49.9536 H         1 UNK         0.0892 
     68 H68        36.2233  -44.1807  -49.4661 H         1 UNK         0.0892 
     69 H69        37.0514  -45.6939  -49.0937 H         1 UNK         0.0892 
     70 H70        34.8147  -44.3758  -51.1938 H         1 UNK         0.3107 
     71 H71        35.5459  -45.5241  -53.7004 H         1 UNK         0.0773 
     72 H72        33.1621  -45.0108  -54.3462 H         1 UNK         0.0680 
     73 H73        32.8145  -44.6011  -52.6828 H         1 UNK         0.0680 
     74 H74        33.0010  -40.8785  -53.4101 H         1 UNK         0.0650 
     75 H75        32.6592  -42.0362  -52.1452 H         1 UNK         0.0650 
     76 H76        30.4545  -42.8939  -52.1764 H         1 UNK         0.1397 
     77 H77        28.3183  -43.4310  -55.8588 H         1 UNK         0.1363 
     78 H78        32.2829  -41.8120  -55.9005 H         1 UNK         0.1355 
     79 H79        30.9068  -41.7275  -57.9188 H         1 UNK         0.0707 
     80 H80        29.2197  -42.1609  -57.8364 H         1 UNK         0.0707 
     81 H81        29.9303  -43.1990  -60.4370 H         1 UNK         0.1034 
     82 H82        29.9342  -44.9408  -60.4340 H         1 UNK         0.1034 
     83 H83        27.8222  -43.0916  -59.2613 H         1 UNK         0.0482 
     84 H84        26.0652  -45.6854  -60.3780 H         1 UNK         0.3460 
     85 H85        25.8772  -45.1336  -62.0238 H         1 UNK         0.3460 
     86 H86        28.2758  -45.8550  -58.4731 H         1 UNK         0.2989 
     87 H87        27.0448  -46.1073  -56.1487 H         1 UNK         0.0559 
     88 H88        24.8465  -45.0879  -55.6317 H         1 UNK         0.0848 
     89 H89        24.0849  -45.9987  -56.9291 H         1 UNK         0.0848 
     90 H90        24.7505  -46.8368  -55.5261 H         1 UNK         0.0848 
     91 H91        27.0897  -48.0619  -57.2126 H         1 UNK         0.3144 
     92 H92        25.1269  -49.5860  -59.7297 H         1 UNK         0.0727 
     93 H93        27.3507  -50.3399  -60.5482 H         1 UNK         0.0790 
     94 H94        28.1382  -49.0242  -59.6780 H         1 UNK         0.0790 
     95 H95        27.0382  -48.6710  -60.9990 H         1 UNK         0.0790 
     96 H96        25.3982  -50.9559  -58.0465 H         1 UNK         0.3215 
     97 H97        25.9180  -51.6974  -55.9701 H         1 UNK         0.0863 
     98 H98        27.2463  -53.1401  -57.5179 H         1 UNK         0.0808 
     99 H99        28.7490  -52.5800  -56.7956 H         1 UNK         0.0808 
    100 H100       27.6219  -53.5522  -55.8513 H         1 UNK         0.0808 
    101 H101       28.5280  -50.6181  -55.0105 H         1 UNK         0.3118 
    102 H102       27.0414  -49.8738  -51.8406 H         1 UNK         0.0546 
    103 H103       28.0618  -52.1021  -51.4438 H         1 UNK         0.0828 
    104 H104       29.1815  -50.8263  -50.9905 H         1 UNK         0.0828 
    105 H105       29.4056  -51.7042  -52.5028 H         1 UNK         0.0828 
    106 H106       29.5947  -49.1976  -52.8295 H         1 UNK         0.3005 
    107 H107       28.6717  -46.1556  -54.4772 H         1 UNK         0.1257 
    108 H108       30.5556  -45.5465  -52.8234 H         1 UNK         0.0775 
    109 H109       29.9867  -46.8165  -51.7928 H         1 UNK         0.0775 
    110 H110       27.3709  -44.3039  -53.8651 H         1 UNK         0.0840 
    111 H111       27.4853  -42.9666  -52.7570 H         1 UNK         0.0840 
    112 H112       30.9285  -48.0075  -53.9700 H         1 UNK         0.2987 
    113 H113       31.1926  -48.8884  -57.2948 H         1 UNK         0.0785 
    114 H114       32.2737  -46.6873  -57.7026 H         1 UNK         0.0798 
    115 H115       33.4931  -47.9162  -57.4077 H         1 UNK         0.0798 
    116 H116       33.0781  -46.7586  -56.1429 H         1 UNK         0.0798 
    117 H117       33.0314  -48.9908  -55.0450 H         1 UNK         0.3079 
    118 H118       31.5224  -51.8185  -53.5011 H         1 UNK         0.0794 
    119 H119       32.6982  -52.8880  -55.4336 H         1 UNK         0.0786 
    120 H120       33.6620  -52.9626  -53.9690 H         1 UNK         0.0786 
    121 H121       34.0543  -51.7881  -55.2263 H         1 UNK         0.0786 
    122 H122       34.0157  -50.7123  -52.9437 H         1 UNK         0.3032 
    123 H123       32.9868  -48.7742  -50.3381 H         1 UNK         0.1094 
    124 H124       35.4120  -49.1779  -50.2560 H         1 UNK         0.0794 
    125 H125       34.6065  -50.6573  -50.7347 H         1 UNK         0.0794 
    126 H126       35.4494  -49.6775  -51.9381 H         1 UNK         0.0794 
    127 H127       33.8130  -46.7804  -50.9309 H         1 UNK         0.3016 
@<TRIPOS>BOND
     1    1    2 1    
     2    1   67 1    
     3    1   68 1    
     4    1   69 1    
     5    2    3 2    
     6    2    4 am   BACKBONE|DICT|INTERRES
     7    4    5 1    
     8    4   70 1    
     9    5    6 1    
    10    5   65 1    
    11    5   71 1    
    12    6    7 1    
    13    6   72 1    
    14    6   73 1    
    15    7    8 1    
    16    8    9 1    
    17    8   74 1    
    18    8   75 1    
    19    9   10 ar   
    20    9   14 ar   
    21   10   11 ar   
    22   10   76 1    
    23   11   12 ar   
    24   11   48 1    
    25   12   13 ar   
    26   12   77 1    
    27   13   14 ar   
    28   13   15 1    
    29   14   78 1    
    30   15   16 1    
    31   15   79 1    
    32   15   80 1    
    33   16   17 1    
    34   17   18 1    
    35   17   81 1    
    36   17   82 1    
    37   18   19 1    
    38   18   22 1    
    39   18   83 1    
    40   19   20 am   BACKBONE|DICT|INTERRES
    41   19   21 2    
    42   20   84 1    
    43   20   85 1    
    44   22   23 am   BACKBONE|DICT|INTERRES
    45   22   86 1    
    46   23   24 2    
    47   23   25 1    
    48   25   26 1    
    49   25   27 1    
    50   25   87 1    
    51   26   88 1    
    52   26   89 1    
    53   26   90 1    
    54   27   28 am   BACKBONE|DICT|INTERRES
    55   27   91 1    
    56   28   29 2    
    57   28   30 1    
    58   30   31 1    
    59   30   32 1    
    60   30   92 1    
    61   31   93 1    
    62   31   94 1    
    63   31   95 1    
    64   32   33 am   BACKBONE|DICT|INTERRES
    65   32   96 1    
    66   33   34 2    
    67   33   35 1    
    68   35   36 1    
    69   35   37 1    
    70   35   97 1    
    71   36   98 1    
    72   36   99 1    
    73   36  100 1    
    74   37   38 am   BACKBONE|DICT|INTERRES
    75   37  101 1    
    76   38   39 2    
    77   38   40 1    
    78   40   41 1    
    79   40   42 1    
    80   40  102 1    
    81   41  103 1    
    82   41  104 1    
    83   41  105 1    
    84   42   43 am   BACKBONE|DICT|INTERRES
    85   42  106 1    
    86   43   44 2    
    87   43   45 1    
    88   45   46 1    
    89   45   49 1    
    90   45  107 1    
    91   46   47 1    
    92   46  108 1    
    93   46  109 1    
    94   47   48 1    
    95   48  110 1    
    96   48  111 1    
    97   49   50 am   BACKBONE|DICT|INTERRES
    98   49  112 1    
    99   50   51 2    
   100   50   52 1    
   101   52   53 1    
   102   52   54 1    
   103   52  113 1    
   104   53  114 1    
   105   53  115 1    
   106   53  116 1    
   107   54   55 am   BACKBONE|DICT|INTERRES
   108   54  117 1    
   109   55   56 2    
   110   55   57 1    
   111   57   58 1    
   112   57   59 1    
   113   57  118 1    
   114   58  119 1    
   115   58  120 1    
   116   58  121 1    
   117   59   60 am   BACKBONE|DICT|INTERRES
   118   59  122 1    
   119   60   61 2    
   120   60   62 1    
   121   62   63 1    
   122   62   64 1    
   123   62  123 1    
   124   63  124 1    
   125   63  125 1    
   126   63  126 1    
   127   64   65 am   BACKBONE|DICT|INTERRES
   128   64  127 1    
   129   65   66 2    
@<TRIPOS>SUBSTRUCTURE
     1 UNK         1 GROUP             0       ****    0 ROOT    
