@<TRIPOS>MOLECULE
3R134
127   129    1
SMALL
USER_CHARGES


@<TRIPOS>ATOM
      1 CA         37.9825  -45.3546  -54.1388 C.3       0 UNK        -0.1968 
      2 C          36.4822  -45.5661  -54.0035 C.2       0 UNK         0.4852 
      3 O          35.9127  -46.3841  -54.7269 O.2       0 UNK        -0.5359 
      4 N          35.8403  -44.8491  -53.0716 N.am      1 UNK        -0.4300 
      5 CA         34.3950  -44.8611  -52.7964 C.3       1 UNK         0.0863 
      6 C6         33.9480  -43.5503  -52.0956 C.3       11 UNK        -0.0953 
      7 S7         34.3654  -42.0704  -53.0818 S.3       11 UNK        -0.2369 
      8 C8         32.7283  -41.3427  -53.4179 C.3       11 UNK         0.0226 
      9 C9         31.7751  -42.2790  -54.1538 C.ar      11 UNK        -0.0699 
     10 C10        32.1778  -42.9577  -55.3109 C.ar      11 UNK        -0.0804 
     11 C11        31.2894  -43.8015  -55.9855 C.ar      11 UNK        -0.0871 
     12 C12        29.9870  -43.9494  -55.5036 C.ar      11 UNK        -0.1008 
     13 C13        29.5620  -43.2521  -54.3717 C.ar      11 UNK        -0.0735 
     14 C14        30.4628  -42.4286  -53.6923 C.ar      11 UNK        -0.0945 
     15 C15        28.1123  -43.3551  -53.9296 C.3       11 UNK         0.0169 
     16 S16        27.0703  -42.3370  -55.0178 S.3       11 UNK        -0.2669 
     17 C17        25.4026  -42.9970  -54.6809 C.3       11 UNK        -0.0850 
     18 CA         25.1033  -44.3760  -55.3373 C.3       10 UNK         0.0855 
     19 C          23.5986  -44.7396  -55.1635 C.2       10 UNK         0.5543 
     20 N          22.8163  -44.8625  -56.2286 N.am      10 UNK        -0.7343 
     21 O          23.1339  -44.9033  -54.0382 O.2       10 UNK        -0.5027 
     22 N          25.6366  -44.4779  -56.7098 N.am      10 UNK        -0.4495 
     23 C          25.7991  -45.6248  -57.3819 C.2       10 UNK         0.4903 
     24 O          25.3979  -46.7118  -56.9681 O.2       10 UNK        -0.4860 
     25 CA         26.5270  -45.5642  -58.7365 C.3       9 UNK         0.0227 
     26 CB         27.4888  -44.3666  -58.8762 C.3       9 UNK        -0.1964 
     27 N          27.2817  -46.8054  -58.8976 N.am      9 UNK        -0.4231 
     28 C          27.1666  -47.6739  -59.9076 C.2       9 UNK         0.5014 
     29 O          26.4897  -47.4761  -60.9181 O.2       9 UNK        -0.5270 
     30 CA         27.9325  -49.0010  -59.7592 C.3       8 UNK         0.0284 
     31 CB         29.4144  -48.8151  -60.1255 C.3       8 UNK        -0.1977 
     32 N          27.8313  -49.5756  -58.4138 N.am      8 UNK        -0.4342 
     33 C          26.7034  -50.0503  -57.8613 C.2       8 UNK         0.5039 
     34 O          25.6257  -50.1135  -58.4541 O.2       8 UNK        -0.5547 
     35 CA         26.7854  -50.5441  -56.4078 C.3       7 UNK         0.0281 
     36 CB         27.3370  -51.9781  -56.3467 C.3       7 UNK        -0.1963 
     37 N          27.6222  -49.6544  -55.6021 N.am      7 UNK        -0.4444 
     38 C          27.1612  -48.6695  -54.8192 C.2       7 UNK         0.5104 
     39 O          25.9704  -48.5203  -54.5442 O.2       7 UNK        -0.5100 
     40 CA         28.1847  -47.6785  -54.2230 C.3       6 UNK         0.0396 
     41 CB         28.2152  -47.7737  -52.6896 C.3       6 UNK        -0.1801 
     42 N          29.5507  -47.8281  -54.7308 N.am      6 UNK        -0.4747 
     43 C          29.9566  -47.5271  -55.9720 C.2       6 UNK         0.5012 
     44 O          29.2189  -47.0701  -56.8443 O.2       6 UNK        -0.5003 
     45 CA         31.4165  -47.8863  -56.3064 C.3       5 UNK         0.0782 
     46 C46        32.4074  -46.8309  -55.7418 C.3       11 UNK        -0.0868 
     47 S47        33.0684  -45.7051  -57.0125 S.3       11 UNK        -0.2515 
     48 C48        31.7097  -44.5178  -57.2621 C.3       11 UNK         0.0199 
     49 N          31.7267  -49.2398  -55.8330 N.am      5 UNK        -0.4607 
     50 C          31.1608  -50.3618  -56.2978 C.2       4 UNK         0.5031 
     51 O          30.3433  -50.3760  -57.2173 O.2       4 UNK        -0.5119 
     52 CA         31.5218  -51.6749  -55.5821 C.3       4 UNK         0.0263 
     53 CB         32.8235  -52.2592  -56.1526 C.3       4 UNK        -0.1967 
     54 N          31.6522  -51.5046  -54.1322 N.am      4 UNK        -0.4237 
     55 C          30.6292  -51.2413  -53.3045 C.2       3 UNK         0.4908 
     56 O          29.4528  -51.2186  -53.6601 O.2       3 UNK        -0.5102 
     57 CA         30.9728  -50.9086  -51.8399 C.3       3 UNK         0.0241 
     58 CB         30.9312  -52.1799  -50.9771 C.3       3 UNK        -0.1971 
     59 N          32.2678  -50.2399  -51.6643 N.am      3 UNK        -0.4139 
     60 C          32.6194  -49.0769  -52.2312 C.2       2 UNK         0.5016 
     61 O          31.8734  -48.4244  -52.9664 O.2       2 UNK        -0.5319 
     62 CA         34.0691  -48.6230  -51.9882 C.3       2 UNK         0.0286 
     63 CB         35.0636  -49.6099  -52.6272 C.3       2 UNK        -0.1963 
     64 N          34.3367  -47.2974  -52.5431 N.am      2 UNK        -0.4790 
     65 C          33.9767  -46.1262  -52.0077 C.2       1 UNK         0.5024 
     66 O          33.3849  -46.0278  -50.9308 O.2       1 UNK        -0.4888 
     67 H67        38.3538  -44.6040  -53.4413 H         1 UNK         0.0892 
     68 H68        38.5113  -46.2878  -53.9472 H         1 UNK         0.0892 
     69 H69        38.2240  -45.0269  -55.1496 H         1 UNK         0.0892 
     70 H70        36.3722  -44.2086  -52.4999 H         1 UNK         0.3107 
     71 H71        33.8717  -44.9128  -53.7537 H         1 UNK         0.0773 
     72 H72        34.4269  -43.4529  -51.1196 H         1 UNK         0.0680 
     73 H73        32.8733  -43.5651  -51.9055 H         1 UNK         0.0680 
     74 H74        32.8637  -40.4419  -54.0174 H         1 UNK         0.0650 
     75 H75        32.2972  -41.0193  -52.4691 H         1 UNK         0.0650 
     76 H76        33.1840  -42.8314  -55.6868 H         1 UNK         0.1397 
     77 H77        29.2829  -44.5799  -56.0270 H         1 UNK         0.1363 
     78 H78        30.1326  -41.8838  -52.8184 H         1 UNK         0.1355 
     79 H79        27.7934  -44.3962  -53.9705 H         1 UNK         0.0707 
     80 H80        27.9913  -43.0293  -52.8953 H         1 UNK         0.0707 
     81 H81        25.2571  -43.0507  -53.6001 H         1 UNK         0.1034 
     82 H82        24.6905  -42.2508  -55.0389 H         1 UNK         0.1034 
     83 H83        25.6433  -45.1254  -54.7554 H         1 UNK         0.0482 
     84 H84        21.8442  -45.0982  -56.1062 H         1 UNK         0.3460 
     85 H85        23.1961  -44.7404  -57.1534 H         1 UNK         0.3460 
     86 H86        25.9882  -43.6192  -57.1067 H         1 UNK         0.2989 
     87 H87        25.7568  -45.4844  -59.5058 H         1 UNK         0.0559 
     88 H88        26.9531  -43.4169  -58.8678 H         1 UNK         0.0848 
     89 H89        28.0334  -44.4116  -59.8195 H         1 UNK         0.0848 
     90 H90        28.2256  -44.3428  -58.0736 H         1 UNK         0.0848 
     91 H91        27.8669  -47.0619  -58.1037 H         1 UNK         0.3144 
     92 H92        27.4963  -49.7166  -60.4593 H         1 UNK         0.0727 
     93 H93        29.9529  -49.7625  -60.0927 H         1 UNK         0.0790 
     94 H94        29.9147  -48.1230  -59.4472 H         1 UNK         0.0790 
     95 H95        29.5196  -48.4165  -61.1355 H         1 UNK         0.0790 
     96 H96        28.6994  -49.6504  -57.8911 H         1 UNK         0.3215 
     97 H97        25.7700  -50.5615  -56.0056 H         1 UNK         0.0863 
     98 H98        27.3857  -52.3385  -55.3189 H         1 UNK         0.0808 
     99 H99        28.3368  -52.0527  -56.7733 H         1 UNK         0.0808 
    100 H100       26.6955  -52.6638  -56.9016 H         1 UNK         0.0808 
    101 H101       28.6223  -49.7435  -55.7110 H         1 UNK         0.3118 
    102 H102       27.8423  -46.6788  -54.4945 H         1 UNK         0.0546 
    103 H103       28.5155  -48.7675  -52.3583 H         1 UNK         0.0828 
    104 H104       27.2307  -47.5728  -52.2653 H         1 UNK         0.0828 
    105 H105       28.9077  -47.0504  -52.2585 H         1 UNK         0.0828 
    106 H106       30.2468  -48.1800  -54.0775 H         1 UNK         0.3005 
    107 H107       31.4990  -47.9114  -57.3955 H         1 UNK         0.1257 
    108 H108       33.2801  -47.3271  -55.3150 H         1 UNK         0.0775 
    109 H109       31.9893  -46.2555  -54.9130 H         1 UNK         0.0775 
    110 H110       32.0280  -43.7736  -57.9933 H         1 UNK         0.0840 
    111 H111       30.8646  -45.0388  -57.7144 H         1 UNK         0.0840 
    112 H112       32.3135  -49.2948  -55.0130 H         1 UNK         0.2987 
    113 H113       30.7160  -52.3878  -55.7700 H         1 UNK         0.0785 
    114 H114       32.7418  -52.4117  -57.2298 H         1 UNK         0.0798 
    115 H115       33.0521  -53.2275  -55.7071 H         1 UNK         0.0798 
    116 H116       33.6755  -51.6001  -55.9807 H         1 UNK         0.0798 
    117 H117       32.5849  -51.5324  -53.7481 H         1 UNK         0.3079 
    118 H118       30.2044  -50.2252  -51.4741 H         1 UNK         0.0794 
    119 H119       31.0703  -51.9484  -49.9208 H         1 UNK         0.0786 
    120 H120       31.7019  -52.8940  -51.2701 H         1 UNK         0.0786 
    121 H121       29.9678  -52.6835  -51.0711 H         1 UNK         0.0786 
    122 H122       32.9389  -50.7135  -51.0762 H         1 UNK         0.3032 
    123 H123       34.2377  -48.5906  -50.9093 H         1 UNK         0.1094 
    124 H124       34.9111  -49.6966  -53.7040 H         1 UNK         0.0794 
    125 H125       36.0936  -49.2911  -52.4644 H         1 UNK         0.0794 
    126 H126       34.9720  -50.6094  -52.2008 H         1 UNK         0.0794 
    127 H127       34.8312  -47.2581  -53.4311 H         1 UNK         0.3016 
@<TRIPOS>BOND
     1    1    2 1    
     2    1   67 1    
     3    1   68 1    
     4    1   69 1    
     5    2    3 2    
     6    2    4 am   BACKBONE|DICT|INTERRES
     7    4    5 1    
     8    4   70 1    
     9    5    6 1    
    10    5   65 1    
    11    5   71 1    
    12    6    7 1    
    13    6   72 1    
    14    6   73 1    
    15    7    8 1    
    16    8    9 1    
    17    8   74 1    
    18    8   75 1    
    19    9   10 ar   
    20    9   14 ar   
    21   10   11 ar   
    22   10   76 1    
    23   11   12 ar   
    24   11   48 1    
    25   12   13 ar   
    26   12   77 1    
    27   13   14 ar   
    28   13   15 1    
    29   14   78 1    
    30   15   16 1    
    31   15   79 1    
    32   15   80 1    
    33   16   17 1    
    34   17   18 1    
    35   17   81 1    
    36   17   82 1    
    37   18   19 1    
    38   18   22 1    
    39   18   83 1    
    40   19   20 am   BACKBONE|DICT|INTERRES
    41   19   21 2    
    42   20   84 1    
    43   20   85 1    
    44   22   23 am   BACKBONE|DICT|INTERRES
    45   22   86 1    
    46   23   24 2    
    47   23   25 1    
    48   25   26 1    
    49   25   27 1    
    50   25   87 1    
    51   26   88 1    
    52   26   89 1    
    53   26   90 1    
    54   27   28 am   BACKBONE|DICT|INTERRES
    55   27   91 1    
    56   28   29 2    
    57   28   30 1    
    58   30   31 1    
    59   30   32 1    
    60   30   92 1    
    61   31   93 1    
    62   31   94 1    
    63   31   95 1    
    64   32   33 am   BACKBONE|DICT|INTERRES
    65   32   96 1    
    66   33   34 2    
    67   33   35 1    
    68   35   36 1    
    69   35   37 1    
    70   35   97 1    
    71   36   98 1    
    72   36   99 1    
    73   36  100 1    
    74   37   38 am   BACKBONE|DICT|INTERRES
    75   37  101 1    
    76   38   39 2    
    77   38   40 1    
    78   40   41 1    
    79   40   42 1    
    80   40  102 1    
    81   41  103 1    
    82   41  104 1    
    83   41  105 1    
    84   42   43 am   BACKBONE|DICT|INTERRES
    85   42  106 1    
    86   43   44 2    
    87   43   45 1    
    88   45   46 1    
    89   45   49 1    
    90   45  107 1    
    91   46   47 1    
    92   46  108 1    
    93   46  109 1    
    94   47   48 1    
    95   48  110 1    
    96   48  111 1    
    97   49   50 am   BACKBONE|DICT|INTERRES
    98   49  112 1    
    99   50   51 2    
   100   50   52 1    
   101   52   53 1    
   102   52   54 1    
   103   52  113 1    
   104   53  114 1    
   105   53  115 1    
   106   53  116 1    
   107   54   55 am   BACKBONE|DICT|INTERRES
   108   54  117 1    
   109   55   56 2    
   110   55   57 1    
   111   57   58 1    
   112   57   59 1    
   113   57  118 1    
   114   58  119 1    
   115   58  120 1    
   116   58  121 1    
   117   59   60 am   BACKBONE|DICT|INTERRES
   118   59  122 1    
   119   60   61 2    
   120   60   62 1    
   121   62   63 1    
   122   62   64 1    
   123   62  123 1    
   124   63  124 1    
   125   63  125 1    
   126   63  126 1    
   127   64   65 am   BACKBONE|DICT|INTERRES
   128   64  127 1    
   129   65   66 2    
@<TRIPOS>SUBSTRUCTURE
     1 UNK         1 GROUP             0       ****    0 ROOT    
