@<TRIPOS>MOLECULE
3R134
127   129    1
SMALL
USER_CHARGES


@<TRIPOS>ATOM
      1 CA         32.4703  -46.2719  -50.6275 C.3       0 UNK        -0.1968 
      2 C          33.8578  -45.8290  -51.0655 C.2       0 UNK         0.4852 
      3 O          34.4279  -44.9121  -50.4717 O.2       0 UNK        -0.5359 
      4 N          34.3965  -46.4732  -52.1030 N.am      1 UNK        -0.4300 
      5 CA         35.6939  -46.1697  -52.7070 C.3       1 UNK         0.0863 
      6 C6         35.6677  -44.9328  -53.6535 C.3       11 UNK        -0.0953 
      7 S7         34.2411  -44.8907  -54.8026 S.3       11 UNK        -0.2369 
      8 C8         33.4037  -43.3538  -54.2913 C.3       11 UNK         0.0226 
      9 C9         31.8895  -43.4999  -54.2824 C.ar      11 UNK        -0.0699 
     10 C10        31.1912  -43.5113  -53.0710 C.ar      11 UNK        -0.0804 
     11 C11        29.7951  -43.5861  -53.0546 C.ar      11 UNK        -0.0871 
     12 C12        29.0967  -43.6731  -54.2634 C.ar      11 UNK        -0.1008 
     13 C13        29.7858  -43.6713  -55.4805 C.ar      11 UNK        -0.0735 
     14 C14        31.1809  -43.5794  -55.4841 C.ar      11 UNK        -0.0945 
     15 C15        29.0276  -43.7743  -56.7934 C.3       11 UNK         0.0169 
     16 S16        28.2953  -42.1821  -57.2717 S.3       11 UNK        -0.2669 
     17 C17        27.9785  -42.4501  -59.0504 C.3       11 UNK        -0.0850 
     18 CA         26.5938  -43.0901  -59.3320 C.3       10 UNK         0.0855 
     19 C          26.1921  -42.9312  -60.8280 C.2       10 UNK         0.5543 
     20 N          25.9854  -44.0039  -61.5831 N.am      10 UNK        -0.7343 
     21 O          26.0538  -41.8095  -61.3098 O.2       10 UNK        -0.5027 
     22 N          26.5379  -44.4817  -58.8551 N.am      10 UNK        -0.4495 
     23 C          25.4440  -45.0939  -58.3944 C.2       10 UNK         0.4903 
     24 O          24.3603  -44.5278  -58.2468 O.2       10 UNK        -0.4860 
     25 CA         25.5477  -46.5888  -58.0345 C.3       9 UNK         0.0227 
     26 CB         24.9724  -47.4627  -59.1656 C.3       9 UNK        -0.1964 
     27 N          26.8695  -47.0846  -57.6198 N.am      9 UNK        -0.4231 
     28 C          28.0045  -47.1994  -58.3269 C.2       9 UNK         0.5014 
     29 O          28.1667  -46.7162  -59.4479 O.2       9 UNK        -0.5270 
     30 CA         29.1496  -48.0037  -57.6815 C.3       8 UNK         0.0284 
     31 CB         30.0441  -47.1086  -56.8100 C.3       8 UNK        -0.1977 
     32 N          28.6698  -49.1285  -56.8766 N.am      8 UNK        -0.4342 
     33 C          28.0477  -50.2144  -57.3578 C.2       8 UNK         0.5039 
     34 O          27.8565  -50.4259  -58.5558 O.2       8 UNK        -0.5547 
     35 CA         27.5359  -51.2271  -56.3227 C.3       7 UNK         0.0281 
     36 CB         28.6675  -52.1540  -55.8491 C.3       7 UNK        -0.1963 
     37 N          26.9385  -50.5510  -55.1702 N.am      7 UNK        -0.4444 
     38 C          25.6762  -50.1038  -55.1259 C.2       7 UNK         0.5104 
     39 O          24.8573  -50.2707  -56.0299 O.2       7 UNK        -0.5100 
     40 CA         25.2473  -49.3399  -53.8590 C.3       6 UNK         0.0396 
     41 CB         24.5951  -50.2998  -52.8515 C.3       6 UNK        -0.1801 
     42 N          26.3463  -48.6251  -53.2031 N.am      6 UNK        -0.4747 
     43 C          26.9603  -47.5460  -53.7100 C.2       6 UNK         0.5012 
     44 O          26.6609  -47.0329  -54.7871 O.2       6 UNK        -0.5003 
     45 CA         28.1404  -46.9725  -52.9004 C.3       5 UNK         0.0782 
     46 C46        27.6184  -45.9631  -51.8512 C.3       11 UNK        -0.0868 
     47 S47        28.9603  -45.1541  -50.9199 S.3       11 UNK        -0.2515 
     48 C48        29.0494  -43.5270  -51.7290 C.3       11 UNK         0.0199 
     49 N          29.0025  -48.0060  -52.3069 N.am      5 UNK        -0.4607 
     50 C          29.6149  -48.9774  -52.9939 C.2       4 UNK         0.5031 
     51 O          29.4185  -49.1936  -54.1914 O.2       4 UNK        -0.5119 
     52 CA         30.5685  -49.8934  -52.2111 C.3       4 UNK         0.0263 
     53 CB         29.7854  -51.0540  -51.5767 C.3       4 UNK        -0.1967 
     54 N          31.6017  -50.4398  -53.0944 N.am      4 UNK        -0.4237 
     55 C          32.5721  -49.7078  -53.6547 C.2       3 UNK         0.4908 
     56 O          32.8072  -48.5309  -53.3549 O.2       3 UNK        -0.5102 
     57 CA         33.4050  -50.4016  -54.7421 C.3       3 UNK         0.0241 
     58 CB         32.5682  -50.6884  -56.0027 C.3       3 UNK        -0.1971 
     59 N          34.5019  -49.5089  -55.0840 N.am      3 UNK        -0.4139 
     60 C          35.7613  -49.8539  -55.3632 C.2       2 UNK         0.5016 
     61 O          36.1385  -51.0129  -55.5408 O.2       2 UNK        -0.5319 
     62 CA         36.7808  -48.6998  -55.4266 C.3       2 UNK         0.0286 
     63 CB         37.0433  -48.2909  -56.8849 C.3       2 UNK        -0.1963 
     64 N          36.3627  -47.5154  -54.6626 N.am      2 UNK        -0.4790 
     65 C          36.2408  -47.4660  -53.3275 C.2       1 UNK         0.5024 
     66 O          36.5289  -48.4075  -52.5864 O.2       1 UNK        -0.4888 
     67 H67        31.8926  -46.6545  -51.4694 H         1 UNK         0.0892 
     68 H68        32.5429  -47.0534  -49.8720 H         1 UNK         0.0892 
     69 H69        31.9221  -45.4327  -50.2006 H         1 UNK         0.0892 
     70 H70        33.8766  -47.2305  -52.5453 H         1 UNK         0.3107 
     71 H71        36.3921  -45.9391  -51.8992 H         1 UNK         0.0773 
     72 H72        35.6649  -44.0333  -53.0380 H         1 UNK         0.0680 
     73 H73        36.5904  -44.8576  -54.2317 H         1 UNK         0.0680 
     74 H74        33.6900  -42.5522  -54.9733 H         1 UNK         0.0650 
     75 H75        33.7407  -43.0433  -53.3020 H         1 UNK         0.0650 
     76 H76        31.7327  -43.4404  -52.1374 H         1 UNK         0.1397 
     77 H77        28.0166  -43.7296  -54.2618 H         1 UNK         0.1363 
     78 H78        31.7194  -43.5675  -56.4219 H         1 UNK         0.1355 
     79 H79        28.2384  -44.5202  -56.6968 H         1 UNK         0.0707 
     80 H80        29.6927  -44.1197  -57.5855 H         1 UNK         0.0707 
     81 H81        28.7797  -43.0448  -59.4928 H         1 UNK         0.1034 
     82 H82        28.0472  -41.4685  -59.5237 H         1 UNK         0.1034 
     83 H83        25.8547  -42.5099  -58.7760 H         1 UNK         0.0482 
     84 H84        26.1030  -44.9276  -61.1987 H         1 UNK         0.3460 
     85 H85        25.7205  -43.8864  -62.5484 H         1 UNK         0.3460 
     86 H86        27.3522  -45.0618  -59.0338 H         1 UNK         0.2989 
     87 H87        24.9099  -46.7303  -57.1604 H         1 UNK         0.0559 
     88 H88        25.5650  -47.3907  -60.0779 H         1 UNK         0.0848 
     89 H89        23.9541  -47.1610  -59.4147 H         1 UNK         0.0848 
     90 H90        24.9362  -48.5123  -58.8723 H         1 UNK         0.0848 
     91 H91        26.8986  -47.3914  -56.6506 H         1 UNK         0.3144 
     92 H92        29.7614  -48.4127  -58.4883 H         1 UNK         0.0727 
     93 H93        30.8558  -47.6761  -56.3550 H         1 UNK         0.0790 
     94 H94        29.4818  -46.6381  -56.0033 H         1 UNK         0.0790 
     95 H95        30.5026  -46.3193  -57.4053 H         1 UNK         0.0790 
     96 H96        28.8502  -49.0823  -55.8739 H         1 UNK         0.3215 
     97 H97        26.7771  -51.8454  -56.8081 H         1 UNK         0.0863 
     98 H98        28.2896  -52.9286  -55.1818 H         1 UNK         0.0808 
     99 H99        29.4458  -51.6073  -55.3178 H         1 UNK         0.0808 
    100 H100       29.1397  -52.6565  -56.6944 H         1 UNK         0.0808 
    101 H101       27.5639  -50.3057  -54.4140 H         1 UNK         0.3118 
    102 H102       24.4986  -48.6033  -54.1588 H         1 UNK         0.0546 
    103 H103       23.7542  -50.8274  -53.3041 H         1 UNK         0.0828 
    104 H104       24.2087  -49.7639  -51.9844 H         1 UNK         0.0828 
    105 H105       25.2986  -51.0538  -52.4961 H         1 UNK         0.0828 
    106 H106       26.6648  -48.9861  -52.3150 H         1 UNK         0.3005 
    107 H107       28.7640  -46.4269  -53.6114 H         1 UNK         0.1257 
    108 H108       26.9713  -46.4650  -51.1292 H         1 UNK         0.0775 
    109 H109       26.9997  -45.1986  -52.3254 H         1 UNK         0.0775 
    110 H110       28.0465  -43.1192  -51.8649 H         1 UNK         0.0840 
    111 H111       29.5612  -42.8353  -51.0581 H         1 UNK         0.0840 
    112 H112       29.2014  -47.8962  -51.3230 H         1 UNK         0.2987 
    113 H113       31.0536  -49.3127  -51.4235 H         1 UNK         0.0785 
    114 H114       29.0258  -50.6849  -50.8863 H         1 UNK         0.0798 
    115 H115       30.4432  -51.7116  -51.0080 H         1 UNK         0.0798 
    116 H116       29.2761  -51.6583  -52.3290 H         1 UNK         0.0798 
    117 H117       31.4668  -51.3887  -53.4102 H         1 UNK         0.3079 
    118 H118       33.7988  -51.3346  -54.3331 H         1 UNK         0.0794 
    119 H119       32.0868  -49.7866  -56.3825 H         1 UNK         0.0786 
    120 H120       31.7842  -51.4172  -55.7991 H         1 UNK         0.0786 
    121 H121       33.1856  -51.0985  -56.8022 H         1 UNK         0.0786 
    122 H122       34.3050  -48.5346  -54.8938 H         1 UNK         0.3032 
    123 H123       37.7146  -49.0693  -54.9965 H         1 UNK         0.1094 
    124 H124       36.1446  -47.8985  -57.3627 H         1 UNK         0.0794 
    125 H125       37.8200  -47.5287  -56.9503 H         1 UNK         0.0794 
    126 H126       37.3795  -49.1449  -57.4748 H         1 UNK         0.0794 
    127 H127       36.0848  -46.7011  -55.1947 H         1 UNK         0.3016 
@<TRIPOS>BOND
     1    1    2 1    
     2    1   67 1    
     3    1   68 1    
     4    1   69 1    
     5    2    3 2    
     6    2    4 am   BACKBONE|DICT|INTERRES
     7    4    5 1    
     8    4   70 1    
     9    5    6 1    
    10    5   65 1    
    11    5   71 1    
    12    6    7 1    
    13    6   72 1    
    14    6   73 1    
    15    7    8 1    
    16    8    9 1    
    17    8   74 1    
    18    8   75 1    
    19    9   10 ar   
    20    9   14 ar   
    21   10   11 ar   
    22   10   76 1    
    23   11   12 ar   
    24   11   48 1    
    25   12   13 ar   
    26   12   77 1    
    27   13   14 ar   
    28   13   15 1    
    29   14   78 1    
    30   15   16 1    
    31   15   79 1    
    32   15   80 1    
    33   16   17 1    
    34   17   18 1    
    35   17   81 1    
    36   17   82 1    
    37   18   19 1    
    38   18   22 1    
    39   18   83 1    
    40   19   20 am   BACKBONE|DICT|INTERRES
    41   19   21 2    
    42   20   84 1    
    43   20   85 1    
    44   22   23 am   BACKBONE|DICT|INTERRES
    45   22   86 1    
    46   23   24 2    
    47   23   25 1    
    48   25   26 1    
    49   25   27 1    
    50   25   87 1    
    51   26   88 1    
    52   26   89 1    
    53   26   90 1    
    54   27   28 am   BACKBONE|DICT|INTERRES
    55   27   91 1    
    56   28   29 2    
    57   28   30 1    
    58   30   31 1    
    59   30   32 1    
    60   30   92 1    
    61   31   93 1    
    62   31   94 1    
    63   31   95 1    
    64   32   33 am   BACKBONE|DICT|INTERRES
    65   32   96 1    
    66   33   34 2    
    67   33   35 1    
    68   35   36 1    
    69   35   37 1    
    70   35   97 1    
    71   36   98 1    
    72   36   99 1    
    73   36  100 1    
    74   37   38 am   BACKBONE|DICT|INTERRES
    75   37  101 1    
    76   38   39 2    
    77   38   40 1    
    78   40   41 1    
    79   40   42 1    
    80   40  102 1    
    81   41  103 1    
    82   41  104 1    
    83   41  105 1    
    84   42   43 am   BACKBONE|DICT|INTERRES
    85   42  106 1    
    86   43   44 2    
    87   43   45 1    
    88   45   46 1    
    89   45   49 1    
    90   45  107 1    
    91   46   47 1    
    92   46  108 1    
    93   46  109 1    
    94   47   48 1    
    95   48  110 1    
    96   48  111 1    
    97   49   50 am   BACKBONE|DICT|INTERRES
    98   49  112 1    
    99   50   51 2    
   100   50   52 1    
   101   52   53 1    
   102   52   54 1    
   103   52  113 1    
   104   53  114 1    
   105   53  115 1    
   106   53  116 1    
   107   54   55 am   BACKBONE|DICT|INTERRES
   108   54  117 1    
   109   55   56 2    
   110   55   57 1    
   111   57   58 1    
   112   57   59 1    
   113   57  118 1    
   114   58  119 1    
   115   58  120 1    
   116   58  121 1    
   117   59   60 am   BACKBONE|DICT|INTERRES
   118   59  122 1    
   119   60   61 2    
   120   60   62 1    
   121   62   63 1    
   122   62   64 1    
   123   62  123 1    
   124   63  124 1    
   125   63  125 1    
   126   63  126 1    
   127   64   65 am   BACKBONE|DICT|INTERRES
   128   64  127 1    
   129   65   66 2    
@<TRIPOS>SUBSTRUCTURE
     1 UNK         1 GROUP             0       ****    0 ROOT    
