@<TRIPOS>MOLECULE
3R134
127   129    1
SMALL
USER_CHARGES


@<TRIPOS>ATOM
      1 CA         34.3634  -43.5235  -48.0383 C.3       0 UNK        -0.1968 
      2 C          33.7174  -44.2864  -49.1858 C.2       0 UNK         0.4852 
      3 O          32.4973  -44.4545  -49.1902 O.2       0 UNK        -0.5359 
      4 N          34.5315  -44.7451  -50.1484 N.am      1 UNK        -0.4300 
      5 CA         34.1372  -45.4978  -51.3492 C.3       1 UNK         0.0863 
      6 C6         33.3054  -44.6673  -52.3627 C.3       11 UNK        -0.0953 
      7 S7         34.2550  -43.2625  -53.0299 S.3       11 UNK        -0.2369 
      8 C8         32.9256  -42.2443  -53.7434 C.3       11 UNK         0.0226 
      9 C9         32.1012  -43.0022  -54.7763 C.ar      11 UNK        -0.0699 
     10 C10        32.6801  -43.4210  -55.9780 C.ar      11 UNK        -0.0804 
     11 C11        31.9266  -44.1118  -56.9334 C.ar      11 UNK        -0.0871 
     12 C12        30.5703  -44.3571  -56.6841 C.ar      11 UNK        -0.1008 
     13 C13        29.9815  -43.9477  -55.4842 C.ar      11 UNK        -0.0735 
     14 C14        30.7535  -43.2772  -54.5322 C.ar      11 UNK        -0.0945 
     15 C15        28.5143  -44.2307  -55.2024 C.3       11 UNK         0.0169 
     16 S16        27.4983  -42.7315  -55.3849 S.3       11 UNK        -0.2669 
     17 C17        27.2950  -42.6359  -57.1980 C.3       11 UNK        -0.0850 
     18 CA         25.8480  -42.9776  -57.6424 C.3       10 UNK         0.0855 
     19 C          25.6435  -42.7308  -59.1669 C.2       10 UNK         0.5543 
     20 N          25.1814  -43.6965  -59.9534 N.am      10 UNK        -0.7343 
     21 O          25.9024  -41.6300  -59.6470 O.2       10 UNK        -0.5027 
     22 N          25.4515  -44.3199  -57.1921 N.am      10 UNK        -0.4495 
     23 C          24.2005  -44.7067  -56.9197 C.2       10 UNK         0.4903 
     24 O          23.2259  -43.9534  -56.9508 O.2       10 UNK        -0.4860 
     25 CA         24.0200  -46.1964  -56.5616 C.3       9 UNK         0.0227 
     26 CB         22.5633  -46.6781  -56.7280 C.3       9 UNK        -0.1964 
     27 N          24.9427  -47.0848  -57.2840 N.am      9 UNK        -0.4231 
     28 C          25.0648  -47.2149  -58.6175 C.2       9 UNK         0.5014 
     29 O          24.4139  -46.5542  -59.4283 O.2       9 UNK        -0.5270 
     30 CA         26.1098  -48.2126  -59.1544 C.3       8 UNK         0.0284 
     31 CB         27.2391  -47.4637  -59.8829 C.3       8 UNK        -0.1977 
     32 N          26.6852  -49.0649  -58.1102 N.am      8 UNK        -0.4342 
     33 C          26.0492  -50.1055  -57.5487 C.2       8 UNK         0.5039 
     34 O          24.9481  -50.5085  -57.9252 O.2       8 UNK        -0.5547 
     35 CA         26.7227  -50.8023  -56.3510 C.3       7 UNK         0.0281 
     36 CB         27.2482  -52.1888  -56.7567 C.3       7 UNK        -0.1963 
     37 N          27.8061  -50.0219  -55.7444 N.am      7 UNK        -0.4444 
     38 C          27.6319  -48.8819  -55.0567 C.2       7 UNK         0.5104 
     39 O          26.5295  -48.3676  -54.8640 O.2       7 UNK        -0.5100 
     40 CA         28.8965  -48.1599  -54.5524 C.3       6 UNK         0.0396 
     41 CB         29.2009  -48.5585  -53.1012 C.3       6 UNK        -0.1801 
     42 N          30.0808  -48.3933  -55.3859 N.am      6 UNK        -0.4747 
     43 C          30.1745  -48.0494  -56.6817 C.2       6 UNK         0.5012 
     44 O          29.2654  -47.4828  -57.2886 O.2       6 UNK        -0.5003 
     45 CA         31.4470  -48.4762  -57.4515 C.3       5 UNK         0.0782 
     46 C46        32.4714  -47.3194  -57.5772 C.3       11 UNK        -0.0868 
     47 S47        32.0137  -46.1483  -58.9008 S.3       11 UNK        -0.2515 
     48 C48        32.5984  -44.5516  -58.2338 C.3       11 UNK         0.0199 
     49 N          32.0660  -49.6910  -56.9062 N.am      5 UNK        -0.4607 
     50 C          31.4665  -50.8887  -56.8395 C.2       4 UNK         0.5031 
     51 O          30.3410  -51.1053  -57.2859 O.2       4 UNK        -0.5119 
     52 CA         32.2124  -52.0308  -56.1243 C.3       4 UNK         0.0263 
     53 CB         32.8606  -52.9680  -57.1559 C.3       4 UNK        -0.1967 
     54 N          33.2269  -51.6143  -55.1466 N.am      4 UNK        -0.4237 
     55 C          33.0217  -50.8176  -54.0883 C.2       3 UNK         0.4908 
     56 O          31.9520  -50.2505  -53.8491 O.2       3 UNK        -0.5102 
     57 CA         34.2274  -50.5981  -53.1668 C.3       3 UNK         0.0241 
     58 CB         35.3351  -49.7935  -53.8747 C.3       3 UNK        -0.1971 
     59 N          33.7913  -49.8722  -51.9795 N.am      3 UNK        -0.4139 
     60 C          34.3393  -49.9360  -50.7632 C.2       2 UNK         0.5016 
     61 O          35.2904  -50.6662  -50.4765 O.2       2 UNK        -0.5319 
     62 CA         33.7578  -48.9678  -49.7137 C.3       2 UNK         0.0286 
     63 CB         34.2592  -49.2635  -48.2878 C.3       2 UNK        -0.1963 
     64 N          34.0991  -47.5850  -50.0596 N.am      2 UNK        -0.4790 
     65 C          33.4885  -46.8568  -51.0059 C.2       1 UNK         0.5024 
     66 O          32.4861  -47.2452  -51.6093 O.2       1 UNK        -0.4888 
     67 H67        33.9528  -42.5159  -47.9805 H         1 UNK         0.0892 
     68 H68        34.1638  -44.0279  -47.0933 H         1 UNK         0.0892 
     69 H69        35.4437  -43.4421  -48.1575 H         1 UNK         0.0892 
     70 H70        35.5218  -44.5576  -50.0730 H         1 UNK         0.3107 
     71 H71        35.0705  -45.7622  -51.8493 H         1 UNK         0.0773 
     72 H72        33.0064  -45.2813  -53.2146 H         1 UNK         0.0680 
     73 H73        32.3833  -44.3041  -51.9063 H         1 UNK         0.0680 
     74 H74        32.2930  -41.8748  -52.9347 H         1 UNK         0.0650 
     75 H75        33.3680  -41.3650  -54.2134 H         1 UNK         0.0650 
     76 H76        33.7247  -43.2099  -56.1630 H         1 UNK         0.1397 
     77 H77        29.9720  -44.8760  -57.4202 H         1 UNK         0.1363 
     78 H78        30.2969  -42.9591  -53.6048 H         1 UNK         0.1355 
     79 H79        28.1357  -45.0209  -55.8527 H         1 UNK         0.0707 
     80 H80        28.4107  -44.6010  -54.1814 H         1 UNK         0.0707 
     81 H81        27.5562  -41.6198  -57.5000 H         1 UNK         0.1034 
     82 H82        28.0146  -43.2878  -57.6953 H         1 UNK         0.1034 
     83 H83        25.1903  -42.2593  -57.1492 H         1 UNK         0.0482 
     84 H84        25.0541  -43.5070  -60.9345 H         1 UNK         0.3460 
     85 H85        24.9321  -44.6074  -59.5845 H         1 UNK         0.3460 
     86 H86        26.1842  -45.0112  -57.1555 H         1 UNK         0.2989 
     87 H87        24.2790  -46.2868  -55.5057 H         1 UNK         0.0559 
     88 H88        21.8861  -46.1084  -56.0904 H         1 UNK         0.0848 
     89 H89        22.4586  -47.7275  -56.4526 H         1 UNK         0.0848 
     90 H90        22.2149  -46.5646  -57.7551 H         1 UNK         0.0848 
     91 H91        25.5370  -47.6561  -56.6937 H         1 UNK         0.3144 
     92 H92        25.6054  -48.8523  -59.8817 H         1 UNK         0.0727 
     93 H93        27.7174  -46.7241  -59.2402 H         1 UNK         0.0790 
     94 H94        26.8527  -46.9297  -60.7521 H         1 UNK         0.0790 
     95 H95        28.0090  -48.1479  -60.2400 H         1 UNK         0.0790 
     96 H96        27.5876  -48.7817  -57.7440 H         1 UNK         0.3215 
     97 H97        25.9532  -50.9440  -55.5888 H         1 UNK         0.0863 
     98 H98        27.7368  -52.6929  -55.9228 H         1 UNK         0.0808 
     99 H99        27.9610  -52.1266  -57.5792 H         1 UNK         0.0808 
    100 H100       26.4308  -52.8304  -57.0887 H         1 UNK         0.0808 
    101 H101       28.7501  -50.3462  -55.9191 H         1 UNK         0.3118 
    102 H102       28.6905  -47.0891  -54.5706 H         1 UNK         0.0546 
    103 H103       29.4178  -49.6236  -53.0120 H         1 UNK         0.0828 
    104 H104       28.3528  -48.3421  -52.4503 H         1 UNK         0.0828 
    105 H105       30.0574  -48.0089  -52.7104 H         1 UNK         0.0828 
    106 H106       30.8438  -48.9061  -54.9538 H         1 UNK         0.3005 
    107 H107       31.1138  -48.7436  -58.4574 H         1 UNK         0.1257 
    108 H108       32.5995  -46.8003  -56.6252 H         1 UNK         0.0775 
    109 H109       33.4557  -47.7116  -57.8379 H         1 UNK         0.0775 
    110 H110       33.6794  -44.6170  -58.0992 H         1 UNK         0.0840 
    111 H111       32.4290  -43.7800  -58.9857 H         1 UNK         0.0840 
    112 H112       32.9882  -49.5936  -56.5091 H         1 UNK         0.2987 
    113 H113       31.4584  -52.5997  -55.5762 H         1 UNK         0.0785 
    114 H114       32.1255  -53.3194  -57.8819 H         1 UNK         0.0798 
    115 H115       33.2869  -53.8512  -56.6797 H         1 UNK         0.0798 
    116 H116       33.6544  -52.4681  -57.7125 H         1 UNK         0.0798 
    117 H117       34.1451  -52.0183  -55.2658 H         1 UNK         0.3079 
    118 H118       34.6105  -51.5780  -52.8736 H         1 UNK         0.0794 
    119 H119       36.1891  -49.6333  -53.2161 H         1 UNK         0.0786 
    120 H120       34.9768  -48.8147  -54.1971 H         1 UNK         0.0786 
    121 H121       35.7079  -50.3143  -54.7573 H         1 UNK         0.0786 
    122 H122       32.9965  -49.2567  -52.1279 H         1 UNK         0.3032 
    123 H123       32.6713  -49.0855  -49.7182 H         1 UNK         0.1094 
    124 H124       35.3407  -49.1483  -48.2043 H         1 UNK         0.0794 
    125 H125       33.7942  -48.5992  -47.5591 H         1 UNK         0.0794 
    126 H126       34.0163  -50.2857  -47.9940 H         1 UNK         0.0794 
    127 H127       34.9247  -47.2027  -49.6210 H         1 UNK         0.3016 
@<TRIPOS>BOND
     1    1    2 1    
     2    1   67 1    
     3    1   68 1    
     4    1   69 1    
     5    2    3 2    
     6    2    4 am   BACKBONE|DICT|INTERRES
     7    4    5 1    
     8    4   70 1    
     9    5    6 1    
    10    5   65 1    
    11    5   71 1    
    12    6    7 1    
    13    6   72 1    
    14    6   73 1    
    15    7    8 1    
    16    8    9 1    
    17    8   74 1    
    18    8   75 1    
    19    9   10 ar   
    20    9   14 ar   
    21   10   11 ar   
    22   10   76 1    
    23   11   12 ar   
    24   11   48 1    
    25   12   13 ar   
    26   12   77 1    
    27   13   14 ar   
    28   13   15 1    
    29   14   78 1    
    30   15   16 1    
    31   15   79 1    
    32   15   80 1    
    33   16   17 1    
    34   17   18 1    
    35   17   81 1    
    36   17   82 1    
    37   18   19 1    
    38   18   22 1    
    39   18   83 1    
    40   19   20 am   BACKBONE|DICT|INTERRES
    41   19   21 2    
    42   20   84 1    
    43   20   85 1    
    44   22   23 am   BACKBONE|DICT|INTERRES
    45   22   86 1    
    46   23   24 2    
    47   23   25 1    
    48   25   26 1    
    49   25   27 1    
    50   25   87 1    
    51   26   88 1    
    52   26   89 1    
    53   26   90 1    
    54   27   28 am   BACKBONE|DICT|INTERRES
    55   27   91 1    
    56   28   29 2    
    57   28   30 1    
    58   30   31 1    
    59   30   32 1    
    60   30   92 1    
    61   31   93 1    
    62   31   94 1    
    63   31   95 1    
    64   32   33 am   BACKBONE|DICT|INTERRES
    65   32   96 1    
    66   33   34 2    
    67   33   35 1    
    68   35   36 1    
    69   35   37 1    
    70   35   97 1    
    71   36   98 1    
    72   36   99 1    
    73   36  100 1    
    74   37   38 am   BACKBONE|DICT|INTERRES
    75   37  101 1    
    76   38   39 2    
    77   38   40 1    
    78   40   41 1    
    79   40   42 1    
    80   40  102 1    
    81   41  103 1    
    82   41  104 1    
    83   41  105 1    
    84   42   43 am   BACKBONE|DICT|INTERRES
    85   42  106 1    
    86   43   44 2    
    87   43   45 1    
    88   45   46 1    
    89   45   49 1    
    90   45  107 1    
    91   46   47 1    
    92   46  108 1    
    93   46  109 1    
    94   47   48 1    
    95   48  110 1    
    96   48  111 1    
    97   49   50 am   BACKBONE|DICT|INTERRES
    98   49  112 1    
    99   50   51 2    
   100   50   52 1    
   101   52   53 1    
   102   52   54 1    
   103   52  113 1    
   104   53  114 1    
   105   53  115 1    
   106   53  116 1    
   107   54   55 am   BACKBONE|DICT|INTERRES
   108   54  117 1    
   109   55   56 2    
   110   55   57 1    
   111   57   58 1    
   112   57   59 1    
   113   57  118 1    
   114   58  119 1    
   115   58  120 1    
   116   58  121 1    
   117   59   60 am   BACKBONE|DICT|INTERRES
   118   59  122 1    
   119   60   61 2    
   120   60   62 1    
   121   62   63 1    
   122   62   64 1    
   123   62  123 1    
   124   63  124 1    
   125   63  125 1    
   126   63  126 1    
   127   64   65 am   BACKBONE|DICT|INTERRES
   128   64  127 1    
   129   65   66 2    
@<TRIPOS>SUBSTRUCTURE
     1 UNK         1 GROUP             0       ****    0 ROOT    
