@<TRIPOS>MOLECULE
3R134
127   129    1
SMALL
USER_CHARGES


@<TRIPOS>ATOM
      1 CA         28.8226  -43.8284  -49.7112 C.3       0 UNK        -0.1968 
      2 C          30.1913  -43.7091  -50.3658 C.2       0 UNK         0.4852 
      3 O          30.7214  -42.6030  -50.4791 O.2       0 UNK        -0.5359 
      4 N          30.7666  -44.8393  -50.7881 N.am      1 UNK        -0.4300 
      5 CA         32.0874  -44.9525  -51.4040 C.3       1 UNK         0.0863 
      6 C6         32.1198  -44.4265  -52.8679 C.3       11 UNK        -0.0953 
      7 S7         33.7436  -43.7215  -53.3010 S.3       11 UNK        -0.2369 
      8 C8         33.2565  -42.3939  -54.4467 C.3       11 UNK         0.0226 
      9 C9         32.6569  -42.9486  -55.7311 C.ar      11 UNK        -0.0699 
     10 C10        33.4590  -43.6764  -56.6152 C.ar      11 UNK        -0.0804 
     11 C11        32.9268  -44.1884  -57.8013 C.ar      11 UNK        -0.0871 
     12 C12        31.5831  -43.9534  -58.1066 C.ar      11 UNK        -0.1008 
     13 C13        30.7699  -43.2288  -57.2313 C.ar      11 UNK        -0.0735 
     14 C14        31.3107  -42.7287  -56.0425 C.ar      11 UNK        -0.0945 
     15 C15        29.3131  -42.9834  -57.5900 C.3       11 UNK         0.0169 
     16 S16        28.2462  -44.3218  -56.9776 S.3       11 UNK        -0.2669 
     17 C17        27.5579  -43.5648  -55.4654 C.3       11 UNK        -0.0850 
     18 CA         26.9785  -44.6061  -54.4646 C.3       10 UNK         0.0855 
     19 C          26.4781  -43.9546  -53.1404 C.2       10 UNK         0.5543 
     20 N          25.4961  -44.5294  -52.4568 N.am      10 UNK        -0.7343 
     21 O          27.0035  -42.9324  -52.7076 O.2       10 UNK        -0.5027 
     22 N          26.0279  -45.5485  -55.0851 N.am      10 UNK        -0.4495 
     23 C          24.8508  -45.2411  -55.6457 C.2       10 UNK         0.4903 
     24 O          24.3837  -44.1016  -55.6931 O.2       10 UNK        -0.4860 
     25 CA         24.0695  -46.4263  -56.2463 C.3       9 UNK         0.0227 
     26 CB         22.7408  -46.0075  -56.9123 C.3       9 UNK        -0.1964 
     27 N          24.8895  -47.2348  -57.1580 N.am      9 UNK        -0.4231 
     28 C          25.4568  -46.8611  -58.3161 C.2       9 UNK         0.5014 
     29 O          25.3023  -45.7477  -58.8206 O.2       9 UNK        -0.5270 
     30 CA         26.3358  -47.9061  -59.0466 C.3       8 UNK         0.0284 
     31 CB         27.3758  -47.2423  -59.9692 C.3       8 UNK        -0.1977 
     32 N          27.0361  -48.8187  -58.1357 N.am      8 UNK        -0.4342 
     33 C          26.4959  -49.8867  -57.5279 C.2       8 UNK         0.5039 
     34 O          25.3425  -50.2649  -57.7309 O.2       8 UNK        -0.5547 
     35 CA         27.3436  -50.6154  -56.4640 C.3       7 UNK         0.0281 
     36 CB         28.0216  -51.8526  -57.0737 C.3       7 UNK        -0.1963 
     37 N          28.3648  -49.7688  -55.8424 N.am      7 UNK        -0.4444 
     38 C          28.1408  -48.6054  -55.2155 C.2       7 UNK         0.5104 
     39 O          27.0170  -48.1903  -54.9297 O.2       7 UNK        -0.5100 
     40 CA         29.3610  -47.7190  -54.9107 C.3       6 UNK         0.0396 
     41 CB         29.5957  -47.6361  -53.3965 C.3       6 UNK        -0.1801 
     42 N          30.6011  -48.1155  -55.5903 N.am      6 UNK        -0.4747 
     43 C          30.7924  -48.1248  -56.9209 C.2       6 UNK         0.5012 
     44 O          29.9073  -47.8443  -57.7306 O.2       6 UNK        -0.5003 
     45 CA         32.1621  -48.6062  -57.4361 C.3       5 UNK         0.0782 
     46 C46        33.1999  -47.4581  -57.5236 C.3       11 UNK        -0.0868 
     47 S47        33.1322  -46.6249  -59.1447 S.3       11 UNK        -0.2515 
     48 C48        33.8104  -44.9797  -58.7565 C.3       11 UNK         0.0199 
     49 N          32.6565  -49.7186  -56.6202 N.am      5 UNK        -0.4607 
     50 C          32.7532  -50.9866  -57.0434 C.2       4 UNK         0.5031 
     51 O          32.4554  -51.3550  -58.1799 O.2       4 UNK        -0.5119 
     52 CA         33.2731  -52.0357  -56.0424 C.3       4 UNK         0.0263 
     53 CB         34.7780  -52.2714  -56.2506 C.3       4 UNK        -0.1967 
     54 N          33.0319  -51.6933  -54.6395 N.am      4 UNK        -0.4237 
     55 C          31.8224  -51.5857  -54.0731 C.2       3 UNK         0.4908 
     56 O          30.7639  -51.7952  -54.6659 O.2       3 UNK        -0.5102 
     57 CA         31.7830  -51.1375  -52.6019 C.3       3 UNK         0.0241 
     58 CB         31.7972  -52.3631  -51.6740 C.3       3 UNK        -0.1971 
     59 N          32.8436  -50.2055  -52.1891 N.am      3 UNK        -0.4139 
     60 C          33.1616  -49.0487  -52.7885 C.2       2 UNK         0.5016 
     61 O          32.7095  -48.6829  -53.8762 O.2       2 UNK        -0.5319 
     62 CA         34.1635  -48.1401  -52.0577 C.3       2 UNK         0.0286 
     63 CB         35.5077  -48.1183  -52.8027 C.3       2 UNK        -0.1963 
     64 N          33.6490  -46.7718  -51.9520 N.am      2 UNK        -0.4790 
     65 C          32.5511  -46.4171  -51.2708 C.2       1 UNK         0.5024 
     66 O          31.9046  -47.2011  -50.5686 O.2       1 UNK        -0.4888 
     67 H67        28.4103  -44.8326  -49.8086 H         1 UNK         0.0892 
     68 H68        28.1237  -43.1322  -50.1742 H         1 UNK         0.0892 
     69 H69        28.8910  -43.5876  -48.6508 H         1 UNK         0.0892 
     70 H70        30.3383  -45.7377  -50.5982 H         1 UNK         0.3107 
     71 H71        32.7693  -44.3597  -50.7903 H         1 UNK         0.0773 
     72 H72        31.8605  -45.1988  -53.5942 H         1 UNK         0.0680 
     73 H73        31.3737  -43.6422  -53.0020 H         1 UNK         0.0680 
     74 H74        32.5609  -41.7192  -53.9451 H         1 UNK         0.0650 
     75 H75        34.1377  -41.7996  -54.6917 H         1 UNK         0.0650 
     76 H76        34.4988  -43.8466  -56.3710 H         1 UNK         0.1397 
     77 H77        31.1664  -44.3461  -59.0243 H         1 UNK         0.1363 
     78 H78        30.6854  -42.1661  -55.3633 H         1 UNK         0.1355 
     79 H79        29.2057  -42.9244  -58.6742 H         1 UNK         0.0707 
     80 H80        28.9786  -42.0195  -57.2033 H         1 UNK         0.0707 
     81 H81        26.7906  -42.8457  -55.7563 H         1 UNK         0.1034 
     82 H82        28.3482  -42.9877  -54.9825 H         1 UNK         0.1034 
     83 H83        27.8149  -45.2236  -54.1416 H         1 UNK         0.0482 
     84 H84        25.0641  -45.3729  -52.7979 H         1 UNK         0.3460 
     85 H85        25.1783  -44.1087  -51.5982 H         1 UNK         0.3460 
     86 H86        26.3182  -46.5244  -55.0766 H         1 UNK         0.2989 
     87 H87        23.8199  -47.0794  -55.4089 H         1 UNK         0.0559 
     88 H88        22.2004  -46.8714  -57.2989 H         1 UNK         0.0848 
     89 H89        22.8996  -45.3136  -57.7382 H         1 UNK         0.0848 
     90 H90        22.0862  -45.5106  -56.1952 H         1 UNK         0.0848 
     91 H91        25.0764  -48.1805  -56.8497 H         1 UNK         0.3144 
     92 H92        25.6647  -48.4949  -59.6752 H         1 UNK         0.0727 
     93 H93        27.9877  -47.9856  -60.4804 H         1 UNK         0.0790 
     94 H94        28.0441  -46.5856  -59.4098 H         1 UNK         0.0790 
     95 H95        26.8932  -46.6385  -60.7387 H         1 UNK         0.0790 
     96 H96        27.9885  -48.5556  -57.8971 H         1 UNK         0.3215 
     97 H97        26.6650  -50.9443  -55.6743 H         1 UNK         0.0863 
     98 H98        28.5482  -52.4311  -56.3142 H         1 UNK         0.0808 
     99 H99        28.7420  -51.5791  -57.8459 H         1 UNK         0.0808 
    100 H100       27.2863  -52.5156  -57.5319 H         1 UNK         0.0808 
    101 H101       29.3270  -50.0470  -55.9773 H         1 UNK         0.3118 
    102 H102       29.1196  -46.7191  -55.2721 H         1 UNK         0.0546 
    103 H103       28.6990  -47.2990  -52.8747 H         1 UNK         0.0828 
    104 H104       30.3883  -46.9308  -53.1616 H         1 UNK         0.0828 
    105 H105       29.8719  -48.6022  -52.9775 H         1 UNK         0.0828 
    106 H106       31.3843  -48.3535  -54.9817 H         1 UNK         0.3005 
    107 H107       31.9807  -48.9728  -58.4493 H         1 UNK         0.1257 
    108 H108       34.2124  -47.8517  -57.4193 H         1 UNK         0.0775 
    109 H109       33.0769  -46.7408  -56.7095 H         1 UNK         0.0775 
    110 H110       34.8169  -45.1004  -58.3526 H         1 UNK         0.0840 
    111 H111       33.9172  -44.4156  -59.6840 H         1 UNK         0.0840 
    112 H112       32.8833  -49.5004  -55.6547 H         1 UNK         0.2987 
    113 H113       32.7475  -52.9702  -56.2503 H         1 UNK         0.0785 
    114 H114       35.3608  -51.3747  -56.0359 H         1 UNK         0.0798 
    115 H115       34.9891  -52.5576  -57.2821 H         1 UNK         0.0798 
    116 H116       35.1470  -53.0746  -55.6125 H         1 UNK         0.0798 
    117 H117       33.8425  -51.4946  -54.0718 H         1 UNK         0.3079 
    118 H118       30.8329  -50.6227  -52.4549 H         1 UNK         0.0794 
    119 H119       32.7442  -52.9016  -51.7301 H         1 UNK         0.0786 
    120 H120       31.0064  -53.0659  -51.9415 H         1 UNK         0.0786 
    121 H121       31.6331  -52.0776  -50.6347 H         1 UNK         0.0786 
    122 H122       33.2879  -50.4171  -51.3070 H         1 UNK         0.3032 
    123 H123       34.3271  -48.5202  -51.0469 H         1 UNK         0.1094 
    124 H124       36.2403  -47.5010  -52.2823 H         1 UNK         0.0794 
    125 H125       35.9283  -49.1218  -52.8808 H         1 UNK         0.0794 
    126 H126       35.4011  -47.7297  -53.8167 H         1 UNK         0.0794 
    127 H127       34.0918  -46.0724  -52.5333 H         1 UNK         0.3016 
@<TRIPOS>BOND
     1    1    2 1    
     2    1   67 1    
     3    1   68 1    
     4    1   69 1    
     5    2    3 2    
     6    2    4 am   BACKBONE|DICT|INTERRES
     7    4    5 1    
     8    4   70 1    
     9    5    6 1    
    10    5   65 1    
    11    5   71 1    
    12    6    7 1    
    13    6   72 1    
    14    6   73 1    
    15    7    8 1    
    16    8    9 1    
    17    8   74 1    
    18    8   75 1    
    19    9   10 ar   
    20    9   14 ar   
    21   10   11 ar   
    22   10   76 1    
    23   11   12 ar   
    24   11   48 1    
    25   12   13 ar   
    26   12   77 1    
    27   13   14 ar   
    28   13   15 1    
    29   14   78 1    
    30   15   16 1    
    31   15   79 1    
    32   15   80 1    
    33   16   17 1    
    34   17   18 1    
    35   17   81 1    
    36   17   82 1    
    37   18   19 1    
    38   18   22 1    
    39   18   83 1    
    40   19   20 am   BACKBONE|DICT|INTERRES
    41   19   21 2    
    42   20   84 1    
    43   20   85 1    
    44   22   23 am   BACKBONE|DICT|INTERRES
    45   22   86 1    
    46   23   24 2    
    47   23   25 1    
    48   25   26 1    
    49   25   27 1    
    50   25   87 1    
    51   26   88 1    
    52   26   89 1    
    53   26   90 1    
    54   27   28 am   BACKBONE|DICT|INTERRES
    55   27   91 1    
    56   28   29 2    
    57   28   30 1    
    58   30   31 1    
    59   30   32 1    
    60   30   92 1    
    61   31   93 1    
    62   31   94 1    
    63   31   95 1    
    64   32   33 am   BACKBONE|DICT|INTERRES
    65   32   96 1    
    66   33   34 2    
    67   33   35 1    
    68   35   36 1    
    69   35   37 1    
    70   35   97 1    
    71   36   98 1    
    72   36   99 1    
    73   36  100 1    
    74   37   38 am   BACKBONE|DICT|INTERRES
    75   37  101 1    
    76   38   39 2    
    77   38   40 1    
    78   40   41 1    
    79   40   42 1    
    80   40  102 1    
    81   41  103 1    
    82   41  104 1    
    83   41  105 1    
    84   42   43 am   BACKBONE|DICT|INTERRES
    85   42  106 1    
    86   43   44 2    
    87   43   45 1    
    88   45   46 1    
    89   45   49 1    
    90   45  107 1    
    91   46   47 1    
    92   46  108 1    
    93   46  109 1    
    94   47   48 1    
    95   48  110 1    
    96   48  111 1    
    97   49   50 am   BACKBONE|DICT|INTERRES
    98   49  112 1    
    99   50   51 2    
   100   50   52 1    
   101   52   53 1    
   102   52   54 1    
   103   52  113 1    
   104   53  114 1    
   105   53  115 1    
   106   53  116 1    
   107   54   55 am   BACKBONE|DICT|INTERRES
   108   54  117 1    
   109   55   56 2    
   110   55   57 1    
   111   57   58 1    
   112   57   59 1    
   113   57  118 1    
   114   58  119 1    
   115   58  120 1    
   116   58  121 1    
   117   59   60 am   BACKBONE|DICT|INTERRES
   118   59  122 1    
   119   60   61 2    
   120   60   62 1    
   121   62   63 1    
   122   62   64 1    
   123   62  123 1    
   124   63  124 1    
   125   63  125 1    
   126   63  126 1    
   127   64   65 am   BACKBONE|DICT|INTERRES
   128   64  127 1    
   129   65   66 2    
@<TRIPOS>SUBSTRUCTURE
     1 UNK         1 GROUP             0       ****    0 ROOT    
