@<TRIPOS>MOLECULE
3R134
127   129    1
SMALL
USER_CHARGES


@<TRIPOS>ATOM
      1 CA         34.4170  -45.5772  -51.9751 C.3       0 UNK        -0.1968 
      2 C          35.4101  -44.6783  -52.7099 C.2       0 UNK         0.4852 
      3 O          36.0538  -43.8601  -52.0558 O.2       0 UNK        -0.5359 
      4 N          35.6002  -44.7726  -54.0374 N.am      1 UNK        -0.4300 
      5 CA         34.9507  -45.6354  -55.0390 C.3       1 UNK         0.0863 
      6 C6         33.5080  -45.1891  -55.4101 C.3       11 UNK        -0.0953 
      7 S7         33.4241  -43.5233  -56.1547 S.3       11 UNK        -0.2369 
      8 C8         32.8968  -42.4553  -54.7740 C.3       11 UNK         0.0226 
      9 C9         31.5738  -42.8901  -54.1584 C.ar      11 UNK        -0.0699 
     10 C10        31.5625  -43.5005  -52.9042 C.ar      11 UNK        -0.0804 
     11 C11        30.3666  -43.9361  -52.3334 C.ar      11 UNK        -0.0871 
     12 C12        29.1624  -43.7152  -53.0063 C.ar      11 UNK        -0.1008 
     13 C13        29.1537  -43.1058  -54.2684 C.ar      11 UNK        -0.0735 
     14 C14        30.3660  -42.6899  -54.8329 C.ar      11 UNK        -0.0945 
     15 C15        27.8563  -42.8731  -55.0394 C.3       11 UNK         0.0169 
     16 S16        26.6213  -44.2017  -54.8295 S.3       11 UNK        -0.2669 
     17 C17        25.5848  -43.9713  -56.3167 C.3       11 UNK        -0.0850 
     18 CA         25.5974  -45.2124  -57.2579 C.3       10 UNK         0.0855 
     19 C          24.6903  -45.0558  -58.5112 C.2       10 UNK         0.5543 
     20 N          24.6954  -46.0284  -59.4132 N.am      10 UNK        -0.7343 
     21 O          23.9761  -44.0680  -58.6686 O.2       10 UNK        -0.5027 
     22 N          26.9477  -45.6922  -57.5914 N.am      10 UNK        -0.4495 
     23 C          27.9020  -45.0052  -58.2333 C.2       10 UNK         0.4903 
     24 O          27.7770  -43.8482  -58.6350 O.2       10 UNK        -0.4860 
     25 CA         29.2349  -45.7359  -58.4560 C.3       9 UNK         0.0227 
     26 CB         30.1794  -45.4946  -57.2689 C.3       9 UNK        -0.1964 
     27 N          29.0385  -47.1753  -58.6589 N.am      9 UNK        -0.4231 
     28 C          28.7270  -47.7125  -59.8491 C.2       9 UNK         0.5014 
     29 O          28.6809  -47.0663  -60.8971 O.2       9 UNK        -0.5270 
     30 CA         28.3925  -49.2157  -59.9007 C.3       8 UNK         0.0284 
     31 CB         29.6236  -50.0417  -60.3097 C.3       8 UNK        -0.1977 
     32 N          27.8177  -49.7630  -58.6678 N.am      8 UNK        -0.4342 
     33 C          26.6466  -49.3856  -58.1373 C.2       8 UNK         0.5039 
     34 O          25.9547  -48.4765  -58.5987 O.2       8 UNK        -0.5547 
     35 CA         26.1596  -50.1163  -56.8790 C.3       7 UNK         0.0281 
     36 CB         27.0579  -51.2858  -56.4245 C.3       7 UNK        -0.1963 
     37 N          26.0728  -49.1326  -55.8062 N.am      7 UNK        -0.4444 
     38 C          24.9710  -48.8203  -55.1131 C.2       7 UNK         0.5104 
     39 O          23.8791  -49.3632  -55.2893 O.2       7 UNK        -0.5100 
     40 CA         25.0897  -47.6976  -54.0575 C.3       6 UNK         0.0396 
     41 CB         24.3102  -48.0253  -52.7665 C.3       6 UNK        -0.1801 
     42 N          26.4697  -47.2895  -53.7540 N.am      6 UNK        -0.4747 
     43 C          27.4291  -48.0363  -53.1886 C.2       6 UNK         0.5012 
     44 O          27.2619  -49.1920  -52.7936 O.2       6 UNK        -0.5003 
     45 CA         28.8251  -47.3942  -53.0644 C.3       5 UNK         0.0782 
     46 C46        29.1401  -47.1452  -51.5667 C.3       11 UNK        -0.0868 
     47 S47        30.7876  -46.4302  -51.2491 S.3       11 UNK        -0.2515 
     48 C48        30.3970  -44.6676  -51.0026 C.3       11 UNK         0.0199 
     49 N          29.8405  -48.2241  -53.7212 N.am      5 UNK        -0.4607 
     50 C          29.8291  -48.6367  -54.9976 C.2       4 UNK         0.5031 
     51 O          28.9650  -48.3071  -55.8173 O.2       4 UNK        -0.5119 
     52 CA         30.9703  -49.5664  -55.4560 C.3       4 UNK         0.0263 
     53 CB         31.6114  -49.0534  -56.7555 C.3       4 UNK        -0.1967 
     54 N          32.0251  -49.7572  -54.4530 N.am      4 UNK        -0.4237 
     55 C          31.9987  -50.6733  -53.4718 C.2       3 UNK         0.4908 
     56 O          31.0464  -51.4318  -53.2874 O.2       3 UNK        -0.5102 
     57 CA         33.2298  -50.7670  -52.5487 C.3       3 UNK         0.0241 
     58 CB         33.4684  -52.1952  -52.0213 C.3       3 UNK        -0.1971 
     59 N          34.4356  -50.2925  -53.2283 N.am      3 UNK        -0.4139 
     60 C          35.3536  -49.4724  -52.7034 C.2       2 UNK         0.5016 
     61 O          35.3496  -49.0915  -51.5323 O.2       2 UNK        -0.5319 
     62 CA         36.4474  -48.9474  -53.6566 C.3       2 UNK         0.0286 
     63 CB         36.7153  -49.8708  -54.8677 C.3       2 UNK        -0.1963 
     64 N          36.1640  -47.5759  -54.1071 N.am      2 UNK        -0.4790 
     65 C          35.0482  -47.1460  -54.7200 C.2       1 UNK         0.5024 
     66 O          34.1120  -47.8900  -55.0133 O.2       1 UNK        -0.4888 
     67 H67        33.9758  -45.0425  -51.1345 H         1 UNK         0.0892 
     68 H68        33.6004  -45.9274  -52.6006 H         1 UNK         0.0892 
     69 H69        34.9340  -46.4462  -51.5714 H         1 UNK         0.0892 
     70 H70        36.2851  -44.1466  -54.4373 H         1 UNK         0.3107 
     71 H71        35.5521  -45.5189  -55.9420 H         1 UNK         0.0773 
     72 H72        33.1004  -45.8594  -56.1670 H         1 UNK         0.0680 
     73 H73        32.8283  -45.2677  -54.5648 H         1 UNK         0.0680 
     74 H74        32.8014  -41.4325  -55.1409 H         1 UNK         0.0650 
     75 H75        33.6863  -42.4339  -54.0217 H         1 UNK         0.0650 
     76 H76        32.4916  -43.6551  -52.3774 H         1 UNK         0.1397 
     77 H77        28.2354  -44.0370  -52.5528 H         1 UNK         0.1363 
     78 H78        30.3754  -42.2163  -55.8052 H         1 UNK         0.1355 
     79 H79        27.4176  -41.9263  -54.7223 H         1 UNK         0.0707 
     80 H80        28.0842  -42.7715  -56.1011 H         1 UNK         0.0707 
     81 H81        24.5658  -43.7693  -55.9822 H         1 UNK         0.1034 
     82 H82        25.8970  -43.0775  -56.8591 H         1 UNK         0.1034 
     83 H83        25.1406  -46.0273  -56.6970 H         1 UNK         0.0482 
     84 H84        25.2299  -46.8778  -59.2397 H         1 UNK         0.3460 
     85 H85        24.1166  -45.9528  -60.2338 H         1 UNK         0.3460 
     86 H86        27.1288  -46.6595  -57.3722 H         1 UNK         0.2989 
     87 H87        29.7084  -45.3092  -59.3429 H         1 UNK         0.0559 
     88 H88        30.4107  -44.4337  -57.1711 H         1 UNK         0.0848 
     89 H89        29.7459  -45.8165  -56.3217 H         1 UNK         0.0848 
     90 H90        31.1245  -46.0155  -57.4085 H         1 UNK         0.0848 
     91 H91        29.0432  -47.7615  -57.8309 H         1 UNK         0.3144 
     92 H92        27.6392  -49.3390  -60.6821 H         1 UNK         0.0727 
     93 H93        29.3615  -51.0863  -60.4789 H         1 UNK         0.0790 
     94 H94        30.4090  -50.0116  -59.5555 H         1 UNK         0.0790 
     95 H95        30.0532  -49.6654  -61.2394 H         1 UNK         0.0790 
     96 H96        28.3282  -50.5087  -58.2182 H         1 UNK         0.3215 
     97 H97        25.1722  -50.5172  -57.1169 H         1 UNK         0.0863 
     98 H98        26.6374  -51.7736  -55.5448 H         1 UNK         0.0808 
     99 H99        27.1403  -52.0495  -57.1991 H         1 UNK         0.0808 
    100 H100       28.0634  -50.9582  -56.1604 H         1 UNK         0.0808 
    101 H101       26.9325  -48.6341  -55.6032 H         1 UNK         0.3118 
    102 H102       24.6160  -46.8216  -54.5017 H         1 UNK         0.0546 
    103 H103       23.2483  -48.1616  -52.9748 H         1 UNK         0.0828 
    104 H104       24.3932  -47.2200  -52.0369 H         1 UNK         0.0828 
    105 H105       24.6657  -48.9430  -52.2974 H         1 UNK         0.0828 
    106 H106       26.7034  -46.3492  -54.0539 H         1 UNK         0.3005 
    107 H107       28.8209  -46.4357  -53.5863 H         1 UNK         0.1257 
    108 H108       29.0926  -48.0841  -51.0110 H         1 UNK         0.0775 
    109 H109       28.3791  -46.5019  -51.1211 H         1 UNK         0.0775 
    110 H110       29.4540  -44.5501  -50.4669 H         1 UNK         0.0840 
    111 H111       31.1621  -44.2267  -50.3617 H         1 UNK         0.0840 
    112 H112       30.5895  -48.5449  -53.1276 H         1 UNK         0.2987 
    113 H113       30.5153  -50.5348  -55.6732 H         1 UNK         0.0785 
    114 H114       30.8772  -48.9808  -57.5549 H         1 UNK         0.0798 
    115 H115       32.3992  -49.7223  -57.1019 H         1 UNK         0.0798 
    116 H116       32.0470  -48.0637  -56.6254 H         1 UNK         0.0798 
    117 H117       32.8237  -49.1292  -54.5321 H         1 UNK         0.3079 
    118 H118       33.0109  -50.1201  -51.6964 H         1 UNK         0.0794 
    119 H119       32.6081  -52.5572  -51.4568 H         1 UNK         0.0786 
    120 H120       34.3284  -52.2307  -51.3523 H         1 UNK         0.0786 
    121 H121       33.6473  -52.8987  -52.8352 H         1 UNK         0.0786 
    122 H122       34.5166  -50.5296  -54.2076 H         1 UNK         0.3032 
    123 H123       37.3655  -48.9049  -53.0676 H         1 UNK         0.1094 
    124 H124       37.5888  -49.5329  -55.4255 H         1 UNK         0.0794 
    125 H125       36.9208  -50.8927  -54.5456 H         1 UNK         0.0794 
    126 H126       35.8784  -49.9039  -55.5658 H         1 UNK         0.0794 
    127 H127       36.8692  -46.8876  -53.8807 H         1 UNK         0.3016 
@<TRIPOS>BOND
     1    1    2 1    
     2    1   67 1    
     3    1   68 1    
     4    1   69 1    
     5    2    3 2    
     6    2    4 am   BACKBONE|DICT|INTERRES
     7    4    5 1    
     8    4   70 1    
     9    5    6 1    
    10    5   65 1    
    11    5   71 1    
    12    6    7 1    
    13    6   72 1    
    14    6   73 1    
    15    7    8 1    
    16    8    9 1    
    17    8   74 1    
    18    8   75 1    
    19    9   10 ar   
    20    9   14 ar   
    21   10   11 ar   
    22   10   76 1    
    23   11   12 ar   
    24   11   48 1    
    25   12   13 ar   
    26   12   77 1    
    27   13   14 ar   
    28   13   15 1    
    29   14   78 1    
    30   15   16 1    
    31   15   79 1    
    32   15   80 1    
    33   16   17 1    
    34   17   18 1    
    35   17   81 1    
    36   17   82 1    
    37   18   19 1    
    38   18   22 1    
    39   18   83 1    
    40   19   20 am   BACKBONE|DICT|INTERRES
    41   19   21 2    
    42   20   84 1    
    43   20   85 1    
    44   22   23 am   BACKBONE|DICT|INTERRES
    45   22   86 1    
    46   23   24 2    
    47   23   25 1    
    48   25   26 1    
    49   25   27 1    
    50   25   87 1    
    51   26   88 1    
    52   26   89 1    
    53   26   90 1    
    54   27   28 am   BACKBONE|DICT|INTERRES
    55   27   91 1    
    56   28   29 2    
    57   28   30 1    
    58   30   31 1    
    59   30   32 1    
    60   30   92 1    
    61   31   93 1    
    62   31   94 1    
    63   31   95 1    
    64   32   33 am   BACKBONE|DICT|INTERRES
    65   32   96 1    
    66   33   34 2    
    67   33   35 1    
    68   35   36 1    
    69   35   37 1    
    70   35   97 1    
    71   36   98 1    
    72   36   99 1    
    73   36  100 1    
    74   37   38 am   BACKBONE|DICT|INTERRES
    75   37  101 1    
    76   38   39 2    
    77   38   40 1    
    78   40   41 1    
    79   40   42 1    
    80   40  102 1    
    81   41  103 1    
    82   41  104 1    
    83   41  105 1    
    84   42   43 am   BACKBONE|DICT|INTERRES
    85   42  106 1    
    86   43   44 2    
    87   43   45 1    
    88   45   46 1    
    89   45   49 1    
    90   45  107 1    
    91   46   47 1    
    92   46  108 1    
    93   46  109 1    
    94   47   48 1    
    95   48  110 1    
    96   48  111 1    
    97   49   50 am   BACKBONE|DICT|INTERRES
    98   49  112 1    
    99   50   51 2    
   100   50   52 1    
   101   52   53 1    
   102   52   54 1    
   103   52  113 1    
   104   53  114 1    
   105   53  115 1    
   106   53  116 1    
   107   54   55 am   BACKBONE|DICT|INTERRES
   108   54  117 1    
   109   55   56 2    
   110   55   57 1    
   111   57   58 1    
   112   57   59 1    
   113   57  118 1    
   114   58  119 1    
   115   58  120 1    
   116   58  121 1    
   117   59   60 am   BACKBONE|DICT|INTERRES
   118   59  122 1    
   119   60   61 2    
   120   60   62 1    
   121   62   63 1    
   122   62   64 1    
   123   62  123 1    
   124   63  124 1    
   125   63  125 1    
   126   63  126 1    
   127   64   65 am   BACKBONE|DICT|INTERRES
   128   64  127 1    
   129   65   66 2    
@<TRIPOS>SUBSTRUCTURE
     1 UNK         1 GROUP             0       ****    0 ROOT    
