@<TRIPOS>MOLECULE
3R134
127   129    1
SMALL
USER_CHARGES


@<TRIPOS>ATOM
      1 CA         35.9234  -43.5191  -51.0750 C.3       0 UNK        -0.1968 
      2 C          36.0881  -43.9443  -52.5267 C.2       0 UNK         0.4852 
      3 O          36.5017  -43.1348  -53.3581 O.2       0 UNK        -0.5359 
      4 N          35.7650  -45.2034  -52.8357 N.am      1 UNK        -0.4300 
      5 CA         35.8573  -45.8047  -54.1642 C.3       1 UNK         0.0863 
      6 C6         34.6960  -45.3959  -55.1142 C.3       11 UNK        -0.0953 
      7 S7         33.0092  -45.6059  -54.4345 S.3       11 UNK        -0.2369 
      8 C8         32.6072  -43.8720  -54.0479 C.3       11 UNK         0.0226 
      9 C9         31.1390  -43.6812  -53.7028 C.ar      11 UNK        -0.0699 
     10 C10        30.7052  -43.7425  -52.3757 C.ar      11 UNK        -0.0804 
     11 C11        29.3621  -43.5128  -52.0577 C.ar      11 UNK        -0.0871 
     12 C12        28.4528  -43.2165  -53.0777 C.ar      11 UNK        -0.1008 
     13 C13        28.8712  -43.1784  -54.4117 C.ar      11 UNK        -0.0735 
     14 C14        30.2168  -43.4018  -54.7142 C.ar      11 UNK        -0.0945 
     15 C15        27.8799  -42.8897  -55.5297 C.3       11 UNK         0.0169 
     16 S16        26.5374  -44.1166  -55.5593 S.3       11 UNK        -0.2669 
     17 C17        25.9652  -44.0101  -57.2887 C.3       11 UNK        -0.0850 
     18 CA         26.0906  -45.3750  -58.0248 C.3       10 UNK         0.0855 
     19 C          25.4565  -45.3957  -59.4415 C.2       10 UNK         0.5543 
     20 N          25.4659  -46.5476  -60.1000 N.am      10 UNK        -0.7343 
     21 O          24.9569  -44.3907  -59.9423 O.2       10 UNK        -0.5027 
     22 N          27.4448  -45.9502  -58.0279 N.am      10 UNK        -0.4495 
     23 C          28.5522  -45.4009  -58.5457 C.2       10 UNK         0.4903 
     24 O          28.6091  -44.2630  -59.0117 O.2       10 UNK        -0.4860 
     25 CA         29.8222  -46.2728  -58.5553 C.3       9 UNK         0.0227 
     26 CB         30.6996  -45.9637  -57.3333 C.3       9 UNK        -0.1964 
     27 N          29.5243  -47.7076  -58.5980 N.am      9 UNK        -0.4231 
     28 C          29.1515  -48.3639  -59.7068 C.2       9 UNK         0.5014 
     29 O          29.1248  -47.8542  -60.8277 O.2       9 UNK        -0.5270 
     30 CA         28.7141  -49.8334  -59.5458 C.3       8 UNK         0.0284 
     31 CB         29.8880  -50.7813  -59.8417 C.3       8 UNK        -0.1977 
     32 N          28.1364  -50.1649  -58.2361 N.am      8 UNK        -0.4342 
     33 C          27.0370  -49.6037  -57.7124 C.2       8 UNK         0.5039 
     34 O          26.4142  -48.6989  -58.2726 O.2       8 UNK        -0.5547 
     35 CA         26.5579  -50.1144  -56.3409 C.3       7 UNK         0.0281 
     36 CB         27.6110  -50.9406  -55.5743 C.3       7 UNK        -0.1963 
     37 N          26.1420  -48.9758  -55.5188 N.am      7 UNK        -0.4444 
     38 C          24.8729  -48.5750  -55.3504 C.2       7 UNK         0.5104 
     39 O          23.9026  -49.1862  -55.8019 O.2       7 UNK        -0.5100 
     40 CA         24.6296  -47.2604  -54.5757 C.3       6 UNK         0.0396 
     41 CB         23.3696  -47.3233  -53.6860 C.3       6 UNK        -0.1801 
     42 N          25.7917  -46.7700  -53.8223 N.am      6 UNK        -0.4747 
     43 C          26.3687  -47.3421  -52.7570 C.2       6 UNK         0.5012 
     44 O          25.9610  -48.3750  -52.2209 O.2       6 UNK        -0.5003 
     45 CA         27.6370  -46.6591  -52.2077 C.3       5 UNK         0.0782 
     46 C46        27.3363  -45.9471  -50.8625 C.3       11 UNK        -0.0868 
     47 S47        28.8208  -45.3005  -50.0154 S.3       11 UNK        -0.2515 
     48 C48        28.8982  -43.5824  -50.6110 C.3       11 UNK         0.0199 
     49 N          28.7224  -47.6346  -52.1017 N.am      5 UNK        -0.4607 
     50 C          29.2854  -48.2593  -53.1402 C.2       4 UNK         0.5031 
     51 O          28.9709  -48.0675  -54.3209 O.2       4 UNK        -0.5119 
     52 CA         30.3639  -49.2889  -52.7931 C.3       4 UNK         0.0263 
     53 CB         29.7406  -50.5785  -52.2232 C.3       4 UNK        -0.1967 
     54 N          31.1158  -49.5801  -54.0061 N.am      4 UNK        -0.4237 
     55 C          32.3315  -50.1305  -54.0678 C.2       3 UNK         0.4908 
     56 O          32.9532  -50.5078  -53.0730 O.2       3 UNK        -0.5102 
     57 CA         32.9588  -50.2960  -55.4669 C.3       3 UNK         0.0241 
     58 CB         32.1162  -49.6957  -56.6126 C.3       3 UNK        -0.1971 
     59 N          34.2857  -49.6835  -55.4854 N.am      3 UNK        -0.4139 
     60 C          35.4309  -50.3011  -55.1670 C.2       2 UNK         0.5016 
     61 O          35.5196  -51.5061  -54.9244 O.2       2 UNK        -0.5319 
     62 CA         36.7067  -49.4375  -55.1278 C.3       2 UNK         0.0286 
     63 CB         37.6020  -49.7460  -56.3400 C.3       2 UNK        -0.1963 
     64 N          36.4552  -47.9914  -55.0805 N.am      2 UNK        -0.4790 
     65 C          36.0042  -47.3271  -54.0071 C.2       1 UNK         0.5024 
     66 O          35.7235  -47.8669  -52.9336 O.2       1 UNK        -0.4888 
     67 H67        35.5443  -44.3301  -50.4533 H         1 UNK         0.0892 
     68 H68        36.8811  -43.1976  -50.6666 H         1 UNK         0.0892 
     69 H69        35.2253  -42.6852  -51.0059 H         1 UNK         0.0892 
     70 H70        35.4697  -45.8575  -52.1208 H         1 UNK         0.3107 
     71 H71        36.7931  -45.4622  -54.6120 H         1 UNK         0.0773 
     72 H72        34.7505  -45.9516  -56.0517 H         1 UNK         0.0680 
     73 H73        34.8336  -44.3537  -55.4048 H         1 UNK         0.0680 
     74 H74        32.8600  -43.2404  -54.9009 H         1 UNK         0.0650 
     75 H75        33.2314  -43.5329  -53.2209 H         1 UNK         0.0650 
     76 H76        31.4128  -43.9652  -51.5885 H         1 UNK         0.1397 
     77 H77        27.4132  -43.0358  -52.8397 H         1 UNK         0.1363 
     78 H78        30.5525  -43.3462  -55.7393 H         1 UNK         0.1355 
     79 H79        28.3909  -42.8890  -56.4937 H         1 UNK         0.0707 
     80 H80        27.4574  -41.8928  -55.3979 H         1 UNK         0.0707 
     81 H81        24.9216  -43.6912  -57.2695 H         1 UNK         0.1034 
     82 H82        26.5016  -43.2272  -57.8264 H         1 UNK         0.1034 
     83 H83        25.4882  -46.0814  -57.4534 H         1 UNK         0.0482 
     84 H84        25.8402  -47.3770  -59.6486 H         1 UNK         0.3460 
     85 H85        25.0657  -46.6038  -61.0227 H         1 UNK         0.3460 
     86 H86        27.4761  -46.9269  -57.7691 H         1 UNK         0.2989 
     87 H87        30.3938  -46.0103  -59.4482 H         1 UNK         0.0559 
     88 H88        30.1955  -46.1949  -56.3932 H         1 UNK         0.0848 
     89 H89        30.9657  -44.9074  -57.3135 H         1 UNK         0.0848 
     90 H90        31.6368  -46.5174  -57.3653 H         1 UNK         0.0848 
     91 H91        29.5184  -48.2041  -57.7201 H         1 UNK         0.3144 
     92 H92        27.9380  -50.0155  -60.2923 H         1 UNK         0.0727 
     93 H93        30.3117  -50.5804  -60.8269 H         1 UNK         0.0790 
     94 H94        29.5692  -51.8238  -59.8373 H         1 UNK         0.0790 
     95 H95        30.6929  -50.6716  -59.1151 H         1 UNK         0.0790 
     96 H96        28.5804  -50.9121  -57.7224 H         1 UNK         0.3215 
     97 H97        25.7050  -50.7685  -56.5331 H         1 UNK         0.0863 
     98 H98        28.5499  -50.4020  -55.4507 H         1 UNK         0.0808 
     99 H99        27.8283  -51.8803  -56.0835 H         1 UNK         0.0808 
    100 H100       27.2477  -51.2018  -54.5802 H         1 UNK         0.0808 
    101 H101       26.8847  -48.4125  -55.1226 H         1 UNK         0.3118 
    102 H102       24.4394  -46.5044  -55.3379 H         1 UNK         0.0546 
    103 H103       23.4316  -48.1222  -52.9469 H         1 UNK         0.0828 
    104 H104       22.4771  -47.5087  -54.2848 H         1 UNK         0.0828 
    105 H105       23.2102  -46.3848  -53.1553 H         1 UNK         0.0828 
    106 H106       26.2095  -45.9279  -54.2029 H         1 UNK         0.3005 
    107 H107       27.9645  -45.9087  -52.9294 H         1 UNK         0.1257 
    108 H108       26.8532  -46.6377  -50.1680 H         1 UNK         0.0775 
    109 H109       26.6261  -45.1323  -51.0149 H         1 UNK         0.0775 
    110 H110       27.9267  -43.1023  -50.4835 H         1 UNK         0.0840 
    111 H111       29.5957  -43.0246  -49.9844 H         1 UNK         0.0840 
    112 H112       29.0251  -47.8541  -51.1644 H         1 UNK         0.2987 
    113 H113       31.0373  -48.8449  -52.0566 H         1 UNK         0.0785 
    114 H114       29.1481  -50.3714  -51.3313 H         1 UNK         0.0798 
    115 H115       30.5067  -51.2991  -51.9372 H         1 UNK         0.0798 
    116 H116       29.0833  -51.0616  -52.9458 H         1 UNK         0.0798 
    117 H117       30.6720  -49.2307  -54.8459 H         1 UNK         0.3079 
    118 H118       33.0494  -51.3690  -55.6490 H         1 UNK         0.0794 
    119 H119       31.1428  -50.1817  -56.6858 H         1 UNK         0.0786 
    120 H120       32.6111  -49.8336  -57.5743 H         1 UNK         0.0786 
    121 H121       31.9536  -48.6268  -56.4780 H         1 UNK         0.0786 
    122 H122       34.3210  -48.6866  -55.6364 H         1 UNK         0.3032 
    123 H123       37.2498  -49.7184  -54.2221 H         1 UNK         0.1094 
    124 H124       37.8421  -50.8092  -56.3885 H         1 UNK         0.0794 
    125 H125       37.1162  -49.4794  -57.2795 H         1 UNK         0.0794 
    126 H126       38.5476  -49.2064  -56.2838 H         1 UNK         0.0794 
    127 H127       36.6715  -47.4716  -55.9200 H         1 UNK         0.3016 
@<TRIPOS>BOND
     1    1    2 1    
     2    1   67 1    
     3    1   68 1    
     4    1   69 1    
     5    2    3 2    
     6    2    4 am   BACKBONE|DICT|INTERRES
     7    4    5 1    
     8    4   70 1    
     9    5    6 1    
    10    5   65 1    
    11    5   71 1    
    12    6    7 1    
    13    6   72 1    
    14    6   73 1    
    15    7    8 1    
    16    8    9 1    
    17    8   74 1    
    18    8   75 1    
    19    9   10 ar   
    20    9   14 ar   
    21   10   11 ar   
    22   10   76 1    
    23   11   12 ar   
    24   11   48 1    
    25   12   13 ar   
    26   12   77 1    
    27   13   14 ar   
    28   13   15 1    
    29   14   78 1    
    30   15   16 1    
    31   15   79 1    
    32   15   80 1    
    33   16   17 1    
    34   17   18 1    
    35   17   81 1    
    36   17   82 1    
    37   18   19 1    
    38   18   22 1    
    39   18   83 1    
    40   19   20 am   BACKBONE|DICT|INTERRES
    41   19   21 2    
    42   20   84 1    
    43   20   85 1    
    44   22   23 am   BACKBONE|DICT|INTERRES
    45   22   86 1    
    46   23   24 2    
    47   23   25 1    
    48   25   26 1    
    49   25   27 1    
    50   25   87 1    
    51   26   88 1    
    52   26   89 1    
    53   26   90 1    
    54   27   28 am   BACKBONE|DICT|INTERRES
    55   27   91 1    
    56   28   29 2    
    57   28   30 1    
    58   30   31 1    
    59   30   32 1    
    60   30   92 1    
    61   31   93 1    
    62   31   94 1    
    63   31   95 1    
    64   32   33 am   BACKBONE|DICT|INTERRES
    65   32   96 1    
    66   33   34 2    
    67   33   35 1    
    68   35   36 1    
    69   35   37 1    
    70   35   97 1    
    71   36   98 1    
    72   36   99 1    
    73   36  100 1    
    74   37   38 am   BACKBONE|DICT|INTERRES
    75   37  101 1    
    76   38   39 2    
    77   38   40 1    
    78   40   41 1    
    79   40   42 1    
    80   40  102 1    
    81   41  103 1    
    82   41  104 1    
    83   41  105 1    
    84   42   43 am   BACKBONE|DICT|INTERRES
    85   42  106 1    
    86   43   44 2    
    87   43   45 1    
    88   45   46 1    
    89   45   49 1    
    90   45  107 1    
    91   46   47 1    
    92   46  108 1    
    93   46  109 1    
    94   47   48 1    
    95   48  110 1    
    96   48  111 1    
    97   49   50 am   BACKBONE|DICT|INTERRES
    98   49  112 1    
    99   50   51 2    
   100   50   52 1    
   101   52   53 1    
   102   52   54 1    
   103   52  113 1    
   104   53  114 1    
   105   53  115 1    
   106   53  116 1    
   107   54   55 am   BACKBONE|DICT|INTERRES
   108   54  117 1    
   109   55   56 2    
   110   55   57 1    
   111   57   58 1    
   112   57   59 1    
   113   57  118 1    
   114   58  119 1    
   115   58  120 1    
   116   58  121 1    
   117   59   60 am   BACKBONE|DICT|INTERRES
   118   59  122 1    
   119   60   61 2    
   120   60   62 1    
   121   62   63 1    
   122   62   64 1    
   123   62  123 1    
   124   63  124 1    
   125   63  125 1    
   126   63  126 1    
   127   64   65 am   BACKBONE|DICT|INTERRES
   128   64  127 1    
   129   65   66 2    
@<TRIPOS>SUBSTRUCTURE
     1 UNK         1 GROUP             0       ****    0 ROOT    
