@<TRIPOS>MOLECULE
3R134
127   129    1
SMALL
USER_CHARGES


@<TRIPOS>ATOM
      1 CA         30.7699  -45.7014  -52.2332 C.3       0 UNK        -0.1968 
      2 C          31.0854  -45.2260  -50.8178 C.2       0 UNK         0.4852 
      3 O          30.1550  -45.0404  -50.0346 O.2       0 UNK        -0.5359 
      4 N          32.3493  -45.0028  -50.4260 N.am      1 UNK        -0.4300 
      5 CA         33.6119  -45.2060  -51.1524 C.3       1 UNK         0.0863 
      6 C6         33.7721  -44.3618  -52.4509 C.3       11 UNK        -0.0953 
      7 S7         33.4982  -42.5819  -52.1613 S.3       11 UNK        -0.2369 
      8 C8         33.9798  -41.8767  -53.7684 C.3       11 UNK         0.0226 
      9 C9         33.0030  -42.2658  -54.8674 C.ar      11 UNK        -0.0699 
     10 C10        33.3228  -43.2858  -55.7671 C.ar      11 UNK        -0.0804 
     11 C11        32.4136  -43.6716  -56.7574 C.ar      11 UNK        -0.0871 
     12 C12        31.1892  -43.0027  -56.8637 C.ar      11 UNK        -0.1008 
     13 C13        30.8655  -41.9693  -55.9791 C.ar      11 UNK        -0.0735 
     14 C14        31.7750  -41.6088  -54.9805 C.ar      11 UNK        -0.0945 
     15 C15        29.5444  -41.2257  -56.1047 C.3       11 UNK         0.0169 
     16 S16        28.2158  -42.0392  -55.1597 S.3       11 UNK        -0.2669 
     17 C17        27.4725  -43.1434  -56.4126 C.3       11 UNK        -0.0850 
     18 CA         25.9920  -42.7788  -56.7495 C.3       10 UNK         0.0855 
     19 C          25.8430  -41.6092  -57.7721 C.2       10 UNK         0.5543 
     20 N          26.4906  -40.4803  -57.5246 N.am      10 UNK        -0.7343 
     21 O          25.1191  -41.6904  -58.7633 O.2       10 UNK        -0.5027 
     22 N          25.1877  -43.9620  -57.0986 N.am      10 UNK        -0.4495 
     23 C          25.4236  -44.8045  -58.1116 C.2       10 UNK         0.4903 
     24 O          26.4076  -44.7465  -58.8532 O.2       10 UNK        -0.4860 
     25 CA         24.3600  -45.8877  -58.3562 C.3       9 UNK         0.0227 
     26 CB         23.4612  -45.5043  -59.5433 C.3       9 UNK        -0.1964 
     27 N          25.0017  -47.1740  -58.6269 N.am      9 UNK        -0.4231 
     28 C          25.5705  -47.9358  -57.6847 C.2       9 UNK         0.5014 
     29 O          25.4631  -47.7125  -56.4761 O.2       9 UNK        -0.5270 
     30 CA         26.3911  -49.1342  -58.1900 C.3       8 UNK         0.0284 
     31 CB         27.5696  -48.6698  -59.0673 C.3       8 UNK        -0.1977 
     32 N          26.9330  -49.8879  -57.0606 N.am      8 UNK        -0.4342 
     33 C          26.4893  -51.0753  -56.6315 C.2       8 UNK         0.5039 
     34 O          25.5694  -51.6931  -57.1711 O.2       8 UNK        -0.5547 
     35 CA         27.1901  -51.7093  -55.4127 C.3       7 UNK         0.0281 
     36 CB         28.0337  -52.9173  -55.8538 C.3       7 UNK        -0.1963 
     37 N          28.0484  -50.7811  -54.6725 N.am      7 UNK        -0.4444 
     38 C          27.6109  -49.8177  -53.8510 C.2       7 UNK         0.5104 
     39 O          26.4275  -49.6577  -53.5525 O.2       7 UNK        -0.5100 
     40 CA         28.6709  -48.8550  -53.2837 C.3       6 UNK         0.0396 
     41 CB         29.2249  -49.3818  -51.9512 C.3       6 UNK        -0.1801 
     42 N          29.7838  -48.5996  -54.2042 N.am      6 UNK        -0.4747 
     43 C          29.6724  -48.0077  -55.4032 C.2       6 UNK         0.5012 
     44 O          28.6095  -47.6049  -55.8692 O.2       6 UNK        -0.5003 
     45 CA         30.9561  -47.8759  -56.2388 C.3       5 UNK         0.0782 
     46 C46        31.7845  -46.6589  -55.7698 C.3       11 UNK        -0.0868 
     47 S47        33.2346  -46.3448  -56.8298 S.3       11 UNK        -0.2515 
     48 C48        32.7431  -44.8200  -57.7055 C.3       11 UNK         0.0199 
     49 N          31.7157  -49.1263  -56.1999 N.am      5 UNK        -0.4607 
     50 C          31.4001  -50.2239  -56.8995 C.2       4 UNK         0.5031 
     51 O          30.4733  -50.2773  -57.7067 O.2       4 UNK        -0.5119 
     52 CA         32.2489  -51.4824  -56.6455 C.3       4 UNK         0.0263 
     53 CB         33.4452  -51.5249  -57.6095 C.3       4 UNK        -0.1967 
     54 N          32.7323  -51.5838  -55.2658 N.am      4 UNK        -0.4237 
     55 C          31.9436  -51.7622  -54.1961 C.2       3 UNK         0.4908 
     56 O          30.7237  -51.9057  -54.2612 O.2       3 UNK        -0.5102 
     57 CA         32.6250  -51.7168  -52.8171 C.3       3 UNK         0.0241 
     58 CB         33.1789  -53.1006  -52.4424 C.3       3 UNK        -0.1971 
     59 N          33.6918  -50.7124  -52.7178 N.am      3 UNK        -0.4139 
     60 C          33.5213  -49.3985  -52.9201 C.2       2 UNK         0.5016 
     61 O          32.4474  -48.8928  -53.2528 O.2       2 UNK        -0.5319 
     62 CA         34.7732  -48.5143  -52.8005 C.3       2 UNK         0.0286 
     63 CB         35.5591  -48.5351  -54.1221 C.3       2 UNK        -0.1963 
     64 N          34.4431  -47.1237  -52.4748 N.am      2 UNK        -0.4790 
     65 C          33.9246  -46.7115  -51.3092 C.2       1 UNK         0.5024 
     66 O          33.7179  -47.4676  -50.3571 O.2       1 UNK        -0.4888 
     67 H67        31.4288  -46.5071  -52.5463 H         1 UNK         0.0892 
     68 H68        29.7508  -46.0831  -52.2836 H         1 UNK         0.0892 
     69 H69        30.8447  -44.8764  -52.9409 H         1 UNK         0.0892 
     70 H70        32.4825  -44.7054  -49.4701 H         1 UNK         0.3107 
     71 H71        34.3802  -44.8487  -50.4648 H         1 UNK         0.0773 
     72 H72        33.1019  -44.7020  -53.2395 H         1 UNK         0.0680 
     73 H73        34.7846  -44.4666  -52.8448 H         1 UNK         0.0680 
     74 H74        34.9935  -42.1946  -54.0172 H         1 UNK         0.0650 
     75 H75        34.0134  -40.7899  -53.6802 H         1 UNK         0.0650 
     76 H76        34.2706  -43.7995  -55.6819 H         1 UNK         0.1397 
     77 H77        30.4845  -43.2882  -57.6324 H         1 UNK         0.1363 
     78 H78        31.5260  -40.8185  -54.2853 H         1 UNK         0.1355 
     79 H79        29.2659  -41.1259  -57.1547 H         1 UNK         0.0707 
     80 H80        29.6606  -40.2075  -55.7300 H         1 UNK         0.0707 
     81 H81        28.0806  -43.1771  -57.3176 H         1 UNK         0.1034 
     82 H82        27.5217  -44.1516  -55.9972 H         1 UNK         0.1034 
     83 H83        25.5201  -42.4160  -55.8355 H         1 UNK         0.0482 
     84 H84        27.0605  -40.3937  -56.6970 H         1 UNK         0.3460 
     85 H85        26.3950  -39.7045  -58.1609 H         1 UNK         0.3460 
     86 H86        24.3373  -44.0774  -56.5659 H         1 UNK         0.2989 
     87 H87        23.7313  -45.9865  -57.4684 H         1 UNK         0.0559 
     88 H88        22.9574  -44.5545  -59.3584 H         1 UNK         0.0848 
     89 H89        22.6875  -46.2528  -59.7153 H         1 UNK         0.0848 
     90 H90        24.0332  -45.3927  -60.4654 H         1 UNK         0.0848 
     91 H91        25.1588  -47.4030  -59.5977 H         1 UNK         0.3144 
     92 H92        25.7341  -49.7656  -58.7916 H         1 UNK         0.0727 
     93 H93        28.1967  -49.5112  -59.3636 H         1 UNK         0.0790 
     94 H94        28.2040  -47.9528  -58.5448 H         1 UNK         0.0790 
     95 H95        27.2237  -48.1909  -59.9836 H         1 UNK         0.0790 
     96 H96        27.6135  -49.3889  -56.4990 H         1 UNK         0.3215 
     97 H97        26.4082  -52.0662  -54.7390 H         1 UNK         0.0863 
     98 H98        28.4716  -53.4294  -54.9967 H         1 UNK         0.0808 
     99 H99        28.8471  -52.6177  -56.5163 H         1 UNK         0.0808 
    100 H100       27.4260  -53.6472  -56.3902 H         1 UNK         0.0808 
    101 H101       29.0513  -50.9059  -54.7755 H         1 UNK         0.3118 
    102 H102       28.1778  -47.8996  -53.0940 H         1 UNK         0.0546 
    103 H103       29.7108  -50.3496  -52.0745 H         1 UNK         0.0828 
    104 H104       28.4254  -49.5095  -51.2204 H         1 UNK         0.0828 
    105 H105       29.9530  -48.6941  -51.5205 H         1 UNK         0.0828 
    106 H106       30.7142  -48.8635  -53.8827 H         1 UNK         0.3005 
    107 H107       30.6482  -47.6934  -57.2714 H         1 UNK         0.1257 
    108 H108       32.1513  -46.8060  -54.7547 H         1 UNK         0.0775 
    109 H109       31.1550  -45.7688  -55.7302 H         1 UNK         0.0775 
    110 H110       33.5563  -44.5128  -58.3642 H         1 UNK         0.0840 
    111 H111       31.8932  -45.0484  -58.3506 H         1 UNK         0.0840 
    112 H112       32.4563  -49.1730  -55.5148 H         1 UNK         0.2987 
    113 H113       31.6163  -52.3504  -56.8440 H         1 UNK         0.0785 
    114 H114       33.1108  -51.4760  -58.6469 H         1 UNK         0.0798 
    115 H115       34.0133  -52.4487  -57.4978 H         1 UNK         0.0798 
    116 H116       34.1260  -50.6881  -57.4473 H         1 UNK         0.0798 
    117 H117       33.7253  -51.4788  -55.1186 H         1 UNK         0.3079 
    118 H118       31.8602  -51.4496  -52.0855 H         1 UNK         0.0794 
    119 H119       33.5704  -53.1094  -51.4249 H         1 UNK         0.0786 
    120 H120       33.9795  -53.4133  -53.1139 H         1 UNK         0.0786 
    121 H121       32.3967  -53.8597  -52.4920 H         1 UNK         0.0786 
    122 H122       34.6081  -51.0518  -52.4615 H         1 UNK         0.3032 
    123 H123       35.4042  -48.9109  -52.0017 H         1 UNK         0.1094 
    124 H124       34.9651  -48.1494  -54.9518 H         1 UNK         0.0794 
    125 H125       36.4668  -47.9350  -54.0536 H         1 UNK         0.0794 
    126 H126       35.8655  -49.5485  -54.3846 H         1 UNK         0.0794 
    127 H127       34.5674  -46.4507  -53.2162 H         1 UNK         0.3016 
@<TRIPOS>BOND
     1    1    2 1    
     2    1   67 1    
     3    1   68 1    
     4    1   69 1    
     5    2    3 2    
     6    2    4 am   BACKBONE|DICT|INTERRES
     7    4    5 1    
     8    4   70 1    
     9    5    6 1    
    10    5   65 1    
    11    5   71 1    
    12    6    7 1    
    13    6   72 1    
    14    6   73 1    
    15    7    8 1    
    16    8    9 1    
    17    8   74 1    
    18    8   75 1    
    19    9   10 ar   
    20    9   14 ar   
    21   10   11 ar   
    22   10   76 1    
    23   11   12 ar   
    24   11   48 1    
    25   12   13 ar   
    26   12   77 1    
    27   13   14 ar   
    28   13   15 1    
    29   14   78 1    
    30   15   16 1    
    31   15   79 1    
    32   15   80 1    
    33   16   17 1    
    34   17   18 1    
    35   17   81 1    
    36   17   82 1    
    37   18   19 1    
    38   18   22 1    
    39   18   83 1    
    40   19   20 am   BACKBONE|DICT|INTERRES
    41   19   21 2    
    42   20   84 1    
    43   20   85 1    
    44   22   23 am   BACKBONE|DICT|INTERRES
    45   22   86 1    
    46   23   24 2    
    47   23   25 1    
    48   25   26 1    
    49   25   27 1    
    50   25   87 1    
    51   26   88 1    
    52   26   89 1    
    53   26   90 1    
    54   27   28 am   BACKBONE|DICT|INTERRES
    55   27   91 1    
    56   28   29 2    
    57   28   30 1    
    58   30   31 1    
    59   30   32 1    
    60   30   92 1    
    61   31   93 1    
    62   31   94 1    
    63   31   95 1    
    64   32   33 am   BACKBONE|DICT|INTERRES
    65   32   96 1    
    66   33   34 2    
    67   33   35 1    
    68   35   36 1    
    69   35   37 1    
    70   35   97 1    
    71   36   98 1    
    72   36   99 1    
    73   36  100 1    
    74   37   38 am   BACKBONE|DICT|INTERRES
    75   37  101 1    
    76   38   39 2    
    77   38   40 1    
    78   40   41 1    
    79   40   42 1    
    80   40  102 1    
    81   41  103 1    
    82   41  104 1    
    83   41  105 1    
    84   42   43 am   BACKBONE|DICT|INTERRES
    85   42  106 1    
    86   43   44 2    
    87   43   45 1    
    88   45   46 1    
    89   45   49 1    
    90   45  107 1    
    91   46   47 1    
    92   46  108 1    
    93   46  109 1    
    94   47   48 1    
    95   48  110 1    
    96   48  111 1    
    97   49   50 am   BACKBONE|DICT|INTERRES
    98   49  112 1    
    99   50   51 2    
   100   50   52 1    
   101   52   53 1    
   102   52   54 1    
   103   52  113 1    
   104   53  114 1    
   105   53  115 1    
   106   53  116 1    
   107   54   55 am   BACKBONE|DICT|INTERRES
   108   54  117 1    
   109   55   56 2    
   110   55   57 1    
   111   57   58 1    
   112   57   59 1    
   113   57  118 1    
   114   58  119 1    
   115   58  120 1    
   116   58  121 1    
   117   59   60 am   BACKBONE|DICT|INTERRES
   118   59  122 1    
   119   60   61 2    
   120   60   62 1    
   121   62   63 1    
   122   62   64 1    
   123   62  123 1    
   124   63  124 1    
   125   63  125 1    
   126   63  126 1    
   127   64   65 am   BACKBONE|DICT|INTERRES
   128   64  127 1    
   129   65   66 2    
@<TRIPOS>SUBSTRUCTURE
     1 UNK         1 GROUP             0       ****    0 ROOT    
