@<TRIPOS>MOLECULE
3R134
127   129    1
SMALL
USER_CHARGES


@<TRIPOS>ATOM
      1 CA         29.7351  -47.6056  -50.0138 C.3       0 UNK        -0.1968 
      2 C          31.1519  -47.3502  -49.5202 C.2       0 UNK         0.4852 
      3 O          31.6127  -48.0419  -48.6117 O.2       0 UNK        -0.5359 
      4 N          31.8397  -46.3598  -50.1077 N.am      1 UNK        -0.4300 
      5 CA         33.2068  -45.9489  -49.7594 C.3       1 UNK         0.0863 
      6 C6         33.6173  -44.6231  -50.4565 C.3       11 UNK        -0.0953 
      7 S7         33.5041  -44.6806  -52.2808 S.3       11 UNK        -0.2369 
      8 C8         32.3806  -43.2925  -52.6584 C.3       11 UNK         0.0226 
      9 C9         31.8490  -43.3345  -54.0906 C.ar      11 UNK        -0.0699 
     10 C10        32.6968  -43.6205  -55.1677 C.ar      11 UNK        -0.0804 
     11 C11        32.1947  -43.6905  -56.4692 C.ar      11 UNK        -0.0871 
     12 C12        30.8444  -43.4312  -56.6980 C.ar      11 UNK        -0.1008 
     13 C13        29.9760  -43.1526  -55.6393 C.ar      11 UNK        -0.0735 
     14 C14        30.4906  -43.1008  -54.3380 C.ar      11 UNK        -0.0945 
     15 C15        28.4734  -42.9902  -55.8654 C.3       11 UNK         0.0169 
     16 S16        28.0169  -41.9592  -57.3023 S.3       11 UNK        -0.2669 
     17 C17        27.9015  -43.1607  -58.6804 C.3       11 UNK        -0.0850 
     18 CA         26.4753  -43.7464  -58.8518 C.3       10 UNK         0.0855 
     19 C          26.2531  -44.3539  -60.2702 C.2       10 UNK         0.5543 
     20 N          25.6900  -45.5482  -60.4151 N.am      10 UNK        -0.7343 
     21 O          26.5838  -43.7197  -61.2690 O.2       10 UNK        -0.5027 
     22 N          26.1739  -44.6907  -57.7667 N.am      10 UNK        -0.4495 
     23 C          24.9891  -44.8151  -57.1602 C.2       10 UNK         0.4903 
     24 O          24.0168  -44.0953  -57.3947 O.2       10 UNK        -0.4860 
     25 CA         24.8799  -45.9536  -56.1272 C.3       9 UNK         0.0227 
     26 CB         23.4253  -46.2398  -55.6990 C.3       9 UNK        -0.1964 
     27 N          25.5403  -47.1921  -56.5607 N.am      9 UNK        -0.4231 
     28 C          25.2924  -47.9037  -57.6736 C.2       9 UNK         0.5014 
     29 O          24.4677  -47.5668  -58.5242 O.2       9 UNK        -0.5270 
     30 CA         26.1118  -49.1889  -57.9168 C.3       8 UNK         0.0284 
     31 CB         26.9523  -49.0528  -59.1979 C.3       8 UNK        -0.1977 
     32 N          26.9991  -49.5499  -56.8096 N.am      8 UNK        -0.4342 
     33 C          26.6098  -50.0338  -55.6226 C.2       8 UNK         0.5039 
     34 O          25.4484  -50.3381  -55.3512 O.2       8 UNK        -0.5547 
     35 CA         27.6945  -50.1270  -54.5367 C.3       7 UNK         0.0281 
     36 CB         28.4164  -51.4831  -54.5916 C.3       7 UNK        -0.1963 
     37 N          28.6660  -49.0306  -54.6357 N.am      7 UNK        -0.4444 
     38 C          28.3880  -47.7479  -54.3582 C.2       7 UNK         0.5104 
     39 O          27.2959  -47.3591  -53.9471 O.2       7 UNK        -0.5100 
     40 CA         29.4971  -46.7211  -54.6256 C.3       6 UNK         0.0396 
     41 CB         30.4510  -46.6289  -53.4287 C.3       6 UNK        -0.1801 
     42 N          30.2572  -47.0346  -55.8344 N.am      6 UNK        -0.4747 
     43 C          29.8088  -46.8294  -57.0817 C.2       6 UNK         0.5012 
     44 O          28.7119  -46.3259  -57.3370 O.2       6 UNK        -0.5003 
     45 CA         30.7013  -47.3238  -58.2426 C.3       5 UNK         0.0782 
     46 C46        31.6018  -46.2014  -58.8271 C.3       11 UNK        -0.0868 
     47 S47        33.1370  -45.8771  -57.8777 S.3       11 UNK        -0.2515 
     48 C48        33.1019  -44.0719  -57.6274 C.3       11 UNK         0.0199 
     49 N          31.4781  -48.5235  -57.9126 N.am      5 UNK        -0.4607 
     50 C          30.9832  -49.7004  -57.5127 C.2       4 UNK         0.5031 
     51 O          29.7784  -49.9317  -57.4134 O.2       4 UNK        -0.5119 
     52 CA         31.9936  -50.7895  -57.1025 C.3       4 UNK         0.0263 
     53 CB         33.4428  -50.5042  -57.5600 C.3       4 UNK        -0.1967 
     54 N          31.9643  -51.0543  -55.6570 N.am      4 UNK        -0.4237 
     55 C          32.1290  -50.1622  -54.6671 C.2       3 UNK         0.4908 
     56 O          32.2652  -48.9516  -54.8548 O.2       3 UNK        -0.5102 
     57 CA         32.0924  -50.6892  -53.2157 C.3       3 UNK         0.0241 
     58 CB         32.3201  -52.2130  -53.0884 C.3       3 UNK        -0.1971 
     59 N          33.0113  -49.9470  -52.3415 N.am      3 UNK        -0.4139 
     60 C          34.3419  -49.8260  -52.4821 C.2       2 UNK         0.5016 
     61 O          35.0015  -50.4294  -53.3306 O.2       2 UNK        -0.5319 
     62 CA         35.0501  -48.8541  -51.5208 C.3       2 UNK         0.0286 
     63 CB         36.3506  -48.2733  -52.1151 C.3       2 UNK        -0.1963 
     64 N          34.1569  -47.7640  -51.1189 N.am      2 UNK        -0.4790 
     65 C          34.2536  -47.0650  -49.9802 C.2       1 UNK         0.5024 
     66 O          35.1092  -47.2754  -49.1189 O.2       1 UNK        -0.4888 
     67 H67        29.2755  -46.6979  -50.4031 H         1 UNK         0.0892 
     68 H68        29.7351  -48.3625  -50.7976 H         1 UNK         0.0892 
     69 H69        29.1100  -47.9653  -49.1966 H         1 UNK         0.0892 
     70 H70        31.4078  -45.8208  -50.8431 H         1 UNK         0.3107 
     71 H71        33.2011  -45.7518  -48.6850 H         1 UNK         0.0773 
     72 H72        34.6382  -44.3482  -50.1846 H         1 UNK         0.0680 
     73 H73        32.9914  -43.8112  -50.0835 H         1 UNK         0.0680 
     74 H74        32.9080  -42.3513  -52.4992 H         1 UNK         0.0650 
     75 H75        31.5502  -43.3127  -51.9512 H         1 UNK         0.0650 
     76 H76        33.7453  -43.8167  -54.9909 H         1 UNK         0.1397 
     77 H77        30.4752  -43.4733  -57.7075 H         1 UNK         0.1363 
     78 H78        29.8254  -42.8985  -53.5098 H         1 UNK         0.1355 
     79 H79        28.0235  -43.9770  -55.9600 H         1 UNK         0.0707 
     80 H80        28.0166  -42.5361  -54.9850 H         1 UNK         0.0707 
     81 H81        28.2123  -42.6224  -59.5777 H         1 UNK         0.1034 
     82 H82        28.6154  -43.9734  -58.5615 H         1 UNK         0.1034 
     83 H83        25.7752  -42.9108  -58.7979 H         1 UNK         0.0482 
     84 H84        25.3516  -46.0727  -59.6171 H         1 UNK         0.3460 
     85 H85        25.5511  -45.9112  -61.3443 H         1 UNK         0.3460 
     86 H86        26.9165  -45.3440  -57.5377 H         1 UNK         0.2989 
     87 H87        25.4227  -45.6134  -55.2441 H         1 UNK         0.0559 
     88 H88        22.8080  -46.5463  -56.5442 H         1 UNK         0.0848 
     89 H89        22.9631  -45.3533  -55.2629 H         1 UNK         0.0848 
     90 H90        23.3815  -47.0288  -54.9482 H         1 UNK         0.0848 
     91 H91        26.2512  -47.5386  -55.9291 H         1 UNK         0.3144 
     92 H92        25.3996  -50.0042  -58.0589 H         1 UNK         0.0727 
     93 H93        27.5346  -49.9540  -59.3916 H         1 UNK         0.0790 
     94 H94        27.6431  -48.2121  -59.1364 H         1 UNK         0.0790 
     95 H95        26.3161  -48.8859  -60.0682 H         1 UNK         0.0790 
     96 H96        27.9971  -49.4324  -56.9704 H         1 UNK         0.3215 
     97 H97        27.1953  -50.0493  -53.5681 H         1 UNK         0.0863 
     98 H98        29.1159  -51.5949  -53.7644 H         1 UNK         0.0808 
     99 H99        28.9660  -51.6177  -55.5232 H         1 UNK         0.0808 
    100 H100       27.7019  -52.3041  -54.5178 H         1 UNK         0.0808 
    101 H101       29.5623  -49.2421  -55.0500 H         1 UNK         0.3118 
    102 H102       29.0310  -45.7447  -54.7590 H         1 UNK         0.0546 
    103 H103       29.9674  -46.1127  -52.6009 H         1 UNK         0.0828 
    104 H104       31.3469  -46.0676  -53.6865 H         1 UNK         0.0828 
    105 H105       30.7681  -47.6100  -53.0755 H         1 UNK         0.0828 
    106 H106       31.1566  -47.4894  -55.7032 H         1 UNK         0.3005 
    107 H107       30.0072  -47.6197  -59.0319 H         1 UNK         0.1257 
    108 H108       31.0348  -45.2813  -58.9688 H         1 UNK         0.0775 
    109 H109       31.9146  -46.4931  -59.8308 H         1 UNK         0.0775 
    110 H110       34.1175  -43.7271  -57.4270 H         1 UNK         0.0840 
    111 H111       32.7904  -43.5726  -58.5463 H         1 UNK         0.0840 
    112 H112       32.4805  -48.3998  -57.9108 H         1 UNK         0.2987 
    113 H113       31.6651  -51.7054  -57.5962 H         1 UNK         0.0785 
    114 H114       33.4932  -50.3345  -58.6365 H         1 UNK         0.0798 
    115 H115       34.0918  -51.3526  -57.3424 H         1 UNK         0.0798 
    116 H116       33.8713  -49.6330  -57.0625 H         1 UNK         0.0798 
    117 H117       31.8276  -52.0211  -55.3981 H         1 UNK         0.3079 
    118 H118       31.0901  -50.4727  -52.8442 H         1 UNK         0.0794 
    119 H119       33.2679  -52.5231  -53.5305 H         1 UNK         0.0786 
    120 H120       31.5242  -52.7800  -53.5726 H         1 UNK         0.0786 
    121 H121       32.3305  -52.5202  -52.0425 H         1 UNK         0.0786 
    122 H122       32.5782  -49.4290  -51.5912 H         1 UNK         0.3032 
    123 H123       35.3086  -49.4418  -50.6369 H         1 UNK         0.1094 
    124 H124       37.0515  -49.0652  -52.3823 H         1 UNK         0.0794 
    125 H125       36.1515  -47.6924  -53.0164 H         1 UNK         0.0794 
    126 H126       36.8608  -47.6236  -51.4041 H         1 UNK         0.0794 
    127 H127       33.4611  -47.4813  -51.7961 H         1 UNK         0.3016 
@<TRIPOS>BOND
     1    1    2 1    
     2    1   67 1    
     3    1   68 1    
     4    1   69 1    
     5    2    3 2    
     6    2    4 am   BACKBONE|DICT|INTERRES
     7    4    5 1    
     8    4   70 1    
     9    5    6 1    
    10    5   65 1    
    11    5   71 1    
    12    6    7 1    
    13    6   72 1    
    14    6   73 1    
    15    7    8 1    
    16    8    9 1    
    17    8   74 1    
    18    8   75 1    
    19    9   10 ar   
    20    9   14 ar   
    21   10   11 ar   
    22   10   76 1    
    23   11   12 ar   
    24   11   48 1    
    25   12   13 ar   
    26   12   77 1    
    27   13   14 ar   
    28   13   15 1    
    29   14   78 1    
    30   15   16 1    
    31   15   79 1    
    32   15   80 1    
    33   16   17 1    
    34   17   18 1    
    35   17   81 1    
    36   17   82 1    
    37   18   19 1    
    38   18   22 1    
    39   18   83 1    
    40   19   20 am   BACKBONE|DICT|INTERRES
    41   19   21 2    
    42   20   84 1    
    43   20   85 1    
    44   22   23 am   BACKBONE|DICT|INTERRES
    45   22   86 1    
    46   23   24 2    
    47   23   25 1    
    48   25   26 1    
    49   25   27 1    
    50   25   87 1    
    51   26   88 1    
    52   26   89 1    
    53   26   90 1    
    54   27   28 am   BACKBONE|DICT|INTERRES
    55   27   91 1    
    56   28   29 2    
    57   28   30 1    
    58   30   31 1    
    59   30   32 1    
    60   30   92 1    
    61   31   93 1    
    62   31   94 1    
    63   31   95 1    
    64   32   33 am   BACKBONE|DICT|INTERRES
    65   32   96 1    
    66   33   34 2    
    67   33   35 1    
    68   35   36 1    
    69   35   37 1    
    70   35   97 1    
    71   36   98 1    
    72   36   99 1    
    73   36  100 1    
    74   37   38 am   BACKBONE|DICT|INTERRES
    75   37  101 1    
    76   38   39 2    
    77   38   40 1    
    78   40   41 1    
    79   40   42 1    
    80   40  102 1    
    81   41  103 1    
    82   41  104 1    
    83   41  105 1    
    84   42   43 am   BACKBONE|DICT|INTERRES
    85   42  106 1    
    86   43   44 2    
    87   43   45 1    
    88   45   46 1    
    89   45   49 1    
    90   45  107 1    
    91   46   47 1    
    92   46  108 1    
    93   46  109 1    
    94   47   48 1    
    95   48  110 1    
    96   48  111 1    
    97   49   50 am   BACKBONE|DICT|INTERRES
    98   49  112 1    
    99   50   51 2    
   100   50   52 1    
   101   52   53 1    
   102   52   54 1    
   103   52  113 1    
   104   53  114 1    
   105   53  115 1    
   106   53  116 1    
   107   54   55 am   BACKBONE|DICT|INTERRES
   108   54  117 1    
   109   55   56 2    
   110   55   57 1    
   111   57   58 1    
   112   57   59 1    
   113   57  118 1    
   114   58  119 1    
   115   58  120 1    
   116   58  121 1    
   117   59   60 am   BACKBONE|DICT|INTERRES
   118   59  122 1    
   119   60   61 2    
   120   60   62 1    
   121   62   63 1    
   122   62   64 1    
   123   62  123 1    
   124   63  124 1    
   125   63  125 1    
   126   63  126 1    
   127   64   65 am   BACKBONE|DICT|INTERRES
   128   64  127 1    
   129   65   66 2    
@<TRIPOS>SUBSTRUCTURE
     1 UNK         1 GROUP             0       ****    0 ROOT    
