@<TRIPOS>MOLECULE
3R134
127   129    1
SMALL
USER_CHARGES


@<TRIPOS>ATOM
      1 CA         39.7506  -45.1845  -53.9517 C.3       0 UNK        -0.1968 
      2 C          38.2773  -45.4301  -53.6617 C.2       0 UNK         0.4852 
      3 O          37.8997  -45.5556  -52.4951 O.2       0 UNK        -0.5359 
      4 N          37.4482  -45.5073  -54.7134 N.am      1 UNK        -0.4300 
      5 CA         35.9964  -45.7388  -54.7037 C.3       1 UNK         0.0863 
      6 C6         35.2086  -44.6781  -53.8860 C.3       11 UNK        -0.0953 
      7 S7         33.4188  -44.6991  -54.2246 S.3       11 UNK        -0.2369 
      8 C8         32.8518  -43.4577  -53.0293 C.3       11 UNK         0.0226 
      9 C9         31.3439  -43.2830  -53.0989 C.ar      11 UNK        -0.0699 
     10 C10        30.5122  -43.9599  -52.2018 C.ar      11 UNK        -0.0804 
     11 C11        29.1266  -43.7832  -52.2498 C.ar      11 UNK        -0.0871 
     12 C12        28.5781  -42.9065  -53.1902 C.ar      11 UNK        -0.1008 
     13 C13        29.3963  -42.2420  -54.1077 C.ar      11 UNK        -0.0735 
     14 C14        30.7804  -42.4331  -54.0558 C.ar      11 UNK        -0.0945 
     15 C15        28.7841  -41.3131  -55.1487 C.3       11 UNK         0.0169 
     16 S16        27.5996  -42.1727  -56.2356 S.3       11 UNK        -0.2669 
     17 C17        28.6670  -43.4442  -56.9928 C.3       11 UNK        -0.0850 
     18 CA         28.1172  -43.9628  -58.3467 C.3       10 UNK         0.0855 
     19 C          29.1379  -44.9441  -58.9931 C.2       10 UNK         0.5543 
     20 N          28.9106  -46.2516  -58.9597 N.am      10 UNK        -0.7343 
     21 O          30.1503  -44.5058  -59.5326 O.2       10 UNK        -0.5027 
     22 N          26.7599  -44.5146  -58.2080 N.am      10 UNK        -0.4495 
     23 C          25.9411  -44.8098  -59.2240 C.2       10 UNK         0.4903 
     24 O          26.1677  -44.5311  -60.4029 O.2       10 UNK        -0.4860 
     25 CA         24.6715  -45.6028  -58.8558 C.3       9 UNK         0.0227 
     26 CB         23.4397  -45.0865  -59.6201 C.3       9 UNK        -0.1964 
     27 N          24.8392  -47.0377  -59.1164 N.am      9 UNK        -0.4231 
     28 C          25.7653  -47.8168  -58.5413 C.2       9 UNK         0.5014 
     29 O          26.5514  -47.4159  -57.6830 O.2       9 UNK        -0.5270 
     30 CA         25.8650  -49.2661  -59.0270 C.3       8 UNK         0.0284 
     31 CB         26.4177  -49.3202  -60.4662 C.3       8 UNK        -0.1977 
     32 N          26.7494  -50.0023  -58.1229 N.am      8 UNK        -0.4342 
     33 C          26.8387  -51.3342  -58.0339 C.2       8 UNK         0.5039 
     34 O          26.1485  -52.1125  -58.6943 O.2       8 UNK        -0.5547 
     35 CA         27.8683  -51.9020  -57.0473 C.3       7 UNK         0.0281 
     36 CB         29.2917  -51.7919  -57.6207 C.3       7 UNK        -0.1963 
     37 N          27.8046  -51.2242  -55.7523 N.am      7 UNK        -0.4444 
     38 C          27.0687  -51.6455  -54.7137 C.2       7 UNK         0.5104 
     39 O          26.3669  -52.6575  -54.7408 O.2       7 UNK        -0.5100 
     40 CA         27.1286  -50.8229  -53.4123 C.3       6 UNK         0.0396 
     41 CB         28.0834  -51.4837  -52.4056 C.3       6 UNK        -0.1801 
     42 N          27.5395  -49.4345  -53.6259 N.am      6 UNK        -0.4747 
     43 C          26.7470  -48.4885  -54.1532 C.2       6 UNK         0.5012 
     44 O          25.5647  -48.6818  -54.4402 O.2       6 UNK        -0.5003 
     45 CA         27.3654  -47.0979  -54.4232 C.3       5 UNK         0.0782 
     46 C46        26.9808  -46.0915  -53.3088 C.3       11 UNK        -0.0868 
     47 S47        27.9676  -46.2659  -51.7754 S.3       11 UNK        -0.2515 
     48 C48        28.2226  -44.5307  -51.2799 C.3       11 UNK         0.0199 
     49 N          28.8118  -47.1116  -54.6736 N.am      5 UNK        -0.4607 
     50 C          29.4665  -47.8608  -55.5720 C.2       4 UNK         0.5031 
     51 O          28.9170  -48.6067  -56.3821 O.2       4 UNK        -0.5119 
     52 CA         31.0034  -47.8409  -55.5009 C.3       4 UNK         0.0263 
     53 CB         31.5678  -46.8106  -56.4904 C.3       4 UNK        -0.1967 
     54 N          31.5536  -47.5857  -54.1621 N.am      4 UNK        -0.4237 
     55 C          31.2726  -48.2857  -53.0514 C.2       3 UNK         0.4908 
     56 O          30.4629  -49.2141  -53.0126 O.2       3 UNK        -0.5102 
     57 CA         32.0292  -47.8631  -51.7786 C.3       3 UNK         0.0241 
     58 CB         31.5478  -48.6090  -50.5159 C.3       3 UNK        -0.1971 
     59 N          33.4843  -47.9780  -51.9378 N.am      3 UNK        -0.4139 
     60 C          34.1947  -49.0805  -52.2316 C.2       2 UNK         0.5016 
     61 O          33.7119  -50.2083  -52.3465 O.2       2 UNK        -0.5319 
     62 CA         35.7114  -48.8711  -52.4340 C.3       2 UNK         0.0286 
     63 CB         36.3910  -50.0491  -53.1649 C.3       2 UNK        -0.1963 
     64 N          36.0288  -47.5975  -53.0958 N.am      2 UNK        -0.4790 
     65 C          35.6222  -47.1820  -54.3047 C.2       1 UNK         0.5024 
     66 O          34.9637  -47.8702  -55.0846 O.2       1 UNK        -0.4888 
     67 H67        40.3505  -46.0091  -53.5678 H         1 UNK         0.0892 
     68 H68        39.9474  -45.0901  -55.0195 H         1 UNK         0.0892 
     69 H69        40.0801  -44.2673  -53.4642 H         1 UNK         0.0892 
     70 H70        37.8464  -45.4221  -55.6388 H         1 UNK         0.3107 
     71 H71        35.6956  -45.6248  -55.7469 H         1 UNK         0.0773 
     72 H72        35.5766  -43.6803  -54.1297 H         1 UNK         0.0680 
     73 H73        35.3672  -44.8053  -52.8140 H         1 UNK         0.0680 
     74 H74        33.3461  -42.5064  -53.2324 H         1 UNK         0.0650 
     75 H75        33.1537  -43.7565  -52.0242 H         1 UNK         0.0650 
     76 H76        30.9407  -44.6207  -51.4617 H         1 UNK         0.1397 
     77 H77        27.5079  -42.7539  -53.2264 H         1 UNK         0.1363 
     78 H78        31.4237  -41.9181  -54.7562 H         1 UNK         0.1355 
     79 H79        28.2676  -40.4996  -54.6375 H         1 UNK         0.0707 
     80 H80        29.5574  -40.8488  -55.7627 H         1 UNK         0.0707 
     81 H81        29.6637  -43.0194  -57.1298 H         1 UNK         0.1034 
     82 H82        28.7830  -44.2667  -56.2835 H         1 UNK         0.1034 
     83 H83        28.0458  -43.1077  -59.0218 H         1 UNK         0.0482 
     84 H84        29.5717  -46.8791  -59.3859 H         1 UNK         0.3460 
     85 H85        28.0954  -46.6212  -58.4790 H         1 UNK         0.3460 
     86 H86        26.5053  -44.8254  -57.2827 H         1 UNK         0.2989 
     87 H87        24.4787  -45.4757  -57.7883 H         1 UNK         0.0559 
     88 H88        23.5385  -45.2312  -60.6968 H         1 UNK         0.0848 
     89 H89        23.2949  -44.0191  -59.4481 H         1 UNK         0.0848 
     90 H90        22.5296  -45.5914  -59.2957 H         1 UNK         0.0848 
     91 H91        24.2522  -47.4358  -59.8351 H         1 UNK         0.3144 
     92 H92        24.8678  -49.7094  -58.9917 H         1 UNK         0.0727 
     93 H93        27.4151  -48.8824  -60.5273 H         1 UNK         0.0790 
     94 H94        25.7784  -48.7733  -61.1599 H         1 UNK         0.0790 
     95 H95        26.4809  -50.3445  -60.8336 H         1 UNK         0.0790 
     96 H96        27.3251  -49.4082  -57.5283 H         1 UNK         0.3215 
     97 H97        27.6509  -52.9642  -56.9141 H         1 UNK         0.0863 
     98 H98        30.0257  -52.2293  -56.9438 H         1 UNK         0.0808 
     99 H99        29.5816  -50.7570  -57.8045 H         1 UNK         0.0808 
    100 H100       29.3691  -52.3234  -58.5701 H         1 UNK         0.0808 
    101 H101       28.3010  -50.3413  -55.6780 H         1 UNK         0.3118 
    102 H102       26.1280  -50.8223  -52.9749 H         1 UNK         0.0546 
    103 H103       29.0995  -51.5492  -52.7966 H         1 UNK         0.0828 
    104 H104       27.7600  -52.4983  -52.1694 H         1 UNK         0.0828 
    105 H105       28.1209  -50.9282  -51.4684 H         1 UNK         0.0828 
    106 H106       28.5083  -49.2076  -53.4143 H         1 UNK         0.3005 
    107 H107       26.9007  -46.7443  -55.3426 H         1 UNK         0.1257 
    108 H108       25.9220  -46.1696  -53.0534 H         1 UNK         0.0775 
    109 H109       27.0997  -45.0846  -53.7042 H         1 UNK         0.0775 
    110 H110       27.2546  -44.0349  -51.1905 H         1 UNK         0.0840 
    111 H111       28.6656  -44.5109  -50.2830 H         1 UNK         0.0840 
    112 H112       29.3605  -46.5620  -54.0287 H         1 UNK         0.2987 
    113 H113       31.3518  -48.8306  -55.8029 H         1 UNK         0.0785 
    114 H114       31.2328  -47.0230  -57.5059 H         1 UNK         0.0798 
    115 H115       32.6578  -46.8269  -56.5037 H         1 UNK         0.0798 
    116 H116       31.2478  -45.7967  -56.2458 H         1 UNK         0.0798 
    117 H117       32.2396  -46.8450  -54.1030 H         1 UNK         0.3079 
    118 H118       31.8160  -46.8043  -51.6306 H         1 UNK         0.0794 
    119 H119       32.0658  -48.2560  -49.6244 H         1 UNK         0.0786 
    120 H120       31.7065  -49.6852  -50.5928 H         1 UNK         0.0786 
    121 H121       30.4804  -48.4501  -50.3558 H         1 UNK         0.0786 
    122 H122       33.9989  -47.1110  -51.8761 H         1 UNK         0.3032 
    123 H123       36.1417  -48.8145  -51.4326 H         1 UNK         0.1094 
    124 H124       35.9642  -50.2128  -54.1550 H         1 UNK         0.0794 
    125 H125       37.4608  -49.8779  -53.2844 H         1 UNK         0.0794 
    126 H126       36.2737  -50.9773  -52.6042 H         1 UNK         0.0794 
    127 H127       36.6141  -46.9482  -52.5723 H         1 UNK         0.3016 
@<TRIPOS>BOND
     1    1    2 1    
     2    1   67 1    
     3    1   68 1    
     4    1   69 1    
     5    2    3 2    
     6    2    4 am   BACKBONE|DICT|INTERRES
     7    4    5 1    
     8    4   70 1    
     9    5    6 1    
    10    5   65 1    
    11    5   71 1    
    12    6    7 1    
    13    6   72 1    
    14    6   73 1    
    15    7    8 1    
    16    8    9 1    
    17    8   74 1    
    18    8   75 1    
    19    9   10 ar   
    20    9   14 ar   
    21   10   11 ar   
    22   10   76 1    
    23   11   12 ar   
    24   11   48 1    
    25   12   13 ar   
    26   12   77 1    
    27   13   14 ar   
    28   13   15 1    
    29   14   78 1    
    30   15   16 1    
    31   15   79 1    
    32   15   80 1    
    33   16   17 1    
    34   17   18 1    
    35   17   81 1    
    36   17   82 1    
    37   18   19 1    
    38   18   22 1    
    39   18   83 1    
    40   19   20 am   BACKBONE|DICT|INTERRES
    41   19   21 2    
    42   20   84 1    
    43   20   85 1    
    44   22   23 am   BACKBONE|DICT|INTERRES
    45   22   86 1    
    46   23   24 2    
    47   23   25 1    
    48   25   26 1    
    49   25   27 1    
    50   25   87 1    
    51   26   88 1    
    52   26   89 1    
    53   26   90 1    
    54   27   28 am   BACKBONE|DICT|INTERRES
    55   27   91 1    
    56   28   29 2    
    57   28   30 1    
    58   30   31 1    
    59   30   32 1    
    60   30   92 1    
    61   31   93 1    
    62   31   94 1    
    63   31   95 1    
    64   32   33 am   BACKBONE|DICT|INTERRES
    65   32   96 1    
    66   33   34 2    
    67   33   35 1    
    68   35   36 1    
    69   35   37 1    
    70   35   97 1    
    71   36   98 1    
    72   36   99 1    
    73   36  100 1    
    74   37   38 am   BACKBONE|DICT|INTERRES
    75   37  101 1    
    76   38   39 2    
    77   38   40 1    
    78   40   41 1    
    79   40   42 1    
    80   40  102 1    
    81   41  103 1    
    82   41  104 1    
    83   41  105 1    
    84   42   43 am   BACKBONE|DICT|INTERRES
    85   42  106 1    
    86   43   44 2    
    87   43   45 1    
    88   45   46 1    
    89   45   49 1    
    90   45  107 1    
    91   46   47 1    
    92   46  108 1    
    93   46  109 1    
    94   47   48 1    
    95   48  110 1    
    96   48  111 1    
    97   49   50 am   BACKBONE|DICT|INTERRES
    98   49  112 1    
    99   50   51 2    
   100   50   52 1    
   101   52   53 1    
   102   52   54 1    
   103   52  113 1    
   104   53  114 1    
   105   53  115 1    
   106   53  116 1    
   107   54   55 am   BACKBONE|DICT|INTERRES
   108   54  117 1    
   109   55   56 2    
   110   55   57 1    
   111   57   58 1    
   112   57   59 1    
   113   57  118 1    
   114   58  119 1    
   115   58  120 1    
   116   58  121 1    
   117   59   60 am   BACKBONE|DICT|INTERRES
   118   59  122 1    
   119   60   61 2    
   120   60   62 1    
   121   62   63 1    
   122   62   64 1    
   123   62  123 1    
   124   63  124 1    
   125   63  125 1    
   126   63  126 1    
   127   64   65 am   BACKBONE|DICT|INTERRES
   128   64  127 1    
   129   65   66 2    
@<TRIPOS>SUBSTRUCTURE
     1 UNK         1 GROUP             0       ****    0 ROOT    
