@<TRIPOS>MOLECULE
3R134
127   129    1
SMALL
USER_CHARGES


@<TRIPOS>ATOM
      1 CA         37.7595  -46.9365  -54.7969 C.3       0 UNK        -0.1968 
      2 C          36.3086  -46.7981  -54.3642 C.2       0 UNK         0.4852 
      3 O          35.5183  -47.7158  -54.5870 O.2       0 UNK        -0.5359 
      4 N          35.9573  -45.6675  -53.7345 N.am      1 UNK        -0.4300 
      5 CA         34.6082  -45.3002  -53.2751 C.3       1 UNK         0.0863 
      6 C6         34.6116  -43.9313  -52.5545 C.3       11 UNK        -0.0953 
      7 S7         34.9598  -42.5782  -53.7270 S.3       11 UNK        -0.2369 
      8 C8         33.4197  -41.6047  -53.6653 C.3       11 UNK         0.0226 
      9 C9         32.1821  -42.4216  -54.0180 C.ar      11 UNK        -0.0699 
     10 C10        31.2347  -42.7191  -53.0341 C.ar      11 UNK        -0.0804 
     11 C11        30.0798  -43.4442  -53.3428 C.ar      11 UNK        -0.0871 
     12 C12        29.8782  -43.8685  -54.6627 C.ar      11 UNK        -0.1008 
     13 C13        30.8205  -43.5836  -55.6566 C.ar      11 UNK        -0.0735 
     14 C14        31.9695  -42.8576  -55.3280 C.ar      11 UNK        -0.0945 
     15 C15        30.6008  -44.0530  -57.0872 C.3       11 UNK         0.0169 
     16 S16        29.3020  -43.0821  -57.9166 S.3       11 UNK        -0.2669 
     17 C17        27.8739  -44.2167  -57.8032 C.3       11 UNK        -0.0850 
     18 CA         27.4483  -44.8048  -59.1740 C.3       10 UNK         0.0855 
     19 C          28.5352  -45.7280  -59.7874 C.2       10 UNK         0.5543 
     20 N          28.6358  -46.9810  -59.3653 N.am      10 UNK        -0.7343 
     21 O          29.2789  -45.3111  -60.6720 O.2       10 UNK        -0.5027 
     22 N          26.1667  -45.5083  -59.0473 N.am      10 UNK        -0.4495 
     23 C          25.0078  -45.1397  -59.6075 C.2       10 UNK         0.4903 
     24 O          24.8722  -44.1335  -60.3045 O.2       10 UNK        -0.4860 
     25 CA         23.7774  -46.0383  -59.3600 C.3       9 UNK         0.0227 
     26 CB         23.4782  -46.8875  -60.6065 C.3       9 UNK        -0.1964 
     27 N          23.9165  -46.9258  -58.2019 N.am      9 UNK        -0.4231 
     28 C          23.9652  -46.5258  -56.9235 C.2       9 UNK         0.5014 
     29 O          23.7627  -45.3651  -56.5646 O.2       9 UNK        -0.5270 
     30 CA         24.3229  -47.5855  -55.8614 C.3       8 UNK         0.0284 
     31 CB         23.0672  -48.0076  -55.0811 C.3       8 UNK        -0.1977 
     32 N          25.0048  -48.7910  -56.3562 N.am      8 UNK        -0.4342 
     33 C          26.1565  -48.8224  -57.0401 C.2       8 UNK         0.5039 
     34 O          26.7416  -47.8174  -57.4481 O.2       8 UNK        -0.5547 
     35 CA         26.7753  -50.2084  -57.2608 C.3       7 UNK         0.0281 
     36 CB         27.6419  -50.2722  -58.5305 C.3       7 UNK        -0.1963 
     37 N          27.6087  -50.4880  -56.0986 N.am      7 UNK        -0.4444 
     38 C          27.2004  -51.1532  -55.0091 C.2       7 UNK         0.5104 
     39 O          26.1358  -51.7688  -54.9424 O.2       7 UNK        -0.5100 
     40 CA         28.1082  -51.0787  -53.7659 C.3       6 UNK         0.0396 
     41 CB         29.0503  -52.2905  -53.7133 C.3       6 UNK        -0.1801 
     42 N          28.8868  -49.8355  -53.7133 N.am      6 UNK        -0.4747 
     43 C          28.3408  -48.6156  -53.5635 C.2       6 UNK         0.5012 
     44 O          27.1467  -48.4463  -53.3141 O.2       6 UNK        -0.5003 
     45 CA         29.2462  -47.3765  -53.7566 C.3       5 UNK         0.0782 
     46 C46        29.3526  -46.5291  -52.4603 C.3       11 UNK        -0.0868 
     47 S47        28.0696  -45.2321  -52.4058 S.3       11 UNK        -0.2515 
     48 C48        29.0638  -43.7094  -52.2291 C.3       11 UNK         0.0199 
     49 N          30.5609  -47.6753  -54.3399 N.am      5 UNK        -0.4607 
     50 C          30.7400  -48.0940  -55.6015 C.2       4 UNK         0.5031 
     51 O          29.8143  -48.3164  -56.3801 O.2       4 UNK        -0.5119 
     52 CA         32.1801  -48.3534  -56.0679 C.3       4 UNK         0.0263 
     53 CB         32.8168  -47.0552  -56.5872 C.3       4 UNK        -0.1967 
     54 N          33.0414  -48.9571  -55.0470 N.am      4 UNK        -0.4237 
     55 C          32.8267  -50.1468  -54.4643 C.2       3 UNK         0.4908 
     56 O          31.8272  -50.8359  -54.6636 O.2       3 UNK        -0.5102 
     57 CA         33.9021  -50.6532  -53.4936 C.3       3 UNK         0.0241 
     58 CB         35.1157  -51.2035  -54.2614 C.3       3 UNK        -0.1971 
     59 N          34.3317  -49.5858  -52.5928 N.am      3 UNK        -0.4139 
     60 C          33.8015  -49.3586  -51.3832 C.2       2 UNK         0.5016 
     61 O          32.9639  -50.0886  -50.8518 O.2       2 UNK        -0.5319 
     62 CA         34.2728  -48.0975  -50.6335 C.3       2 UNK         0.0286 
     63 CB         35.4015  -48.4470  -49.6503 C.3       2 UNK        -0.1963 
     64 N          34.7189  -47.0100  -51.5108 N.am      2 UNK        -0.4790 
     65 C          33.9374  -46.3737  -52.3960 C.2       1 UNK         0.5024 
     66 O          32.7487  -46.6396  -52.5704 O.2       1 UNK        -0.4888 
     67 H67        37.8151  -47.0689  -55.8770 H         1 UNK         0.0892 
     68 H68        38.3512  -46.0609  -54.5307 H         1 UNK         0.0892 
     69 H69        38.2095  -47.8085  -54.3232 H         1 UNK         0.0892 
     70 H70        36.6584  -44.9541  -53.5934 H         1 UNK         0.3107 
     71 H71        33.9866  -45.2081  -54.1668 H         1 UNK         0.0773 
     72 H72        35.3643  -43.9116  -51.7643 H         1 UNK         0.0680 
     73 H73        33.6585  -43.7424  -52.0585 H         1 UNK         0.0680 
     74 H74        33.5059  -40.7687  -54.3607 H         1 UNK         0.0650 
     75 H75        33.3228  -41.1643  -52.6717 H         1 UNK         0.0650 
     76 H76        31.3936  -42.3747  -52.0212 H         1 UNK         0.1397 
     77 H77        28.9820  -44.4104  -54.9256 H         1 UNK         0.1363 
     78 H78        32.7002  -42.6258  -56.0909 H         1 UNK         0.1355 
     79 H79        31.5220  -43.9554  -57.6635 H         1 UNK         0.0707 
     80 H80        30.3563  -45.1162  -57.0961 H         1 UNK         0.0707 
     81 H81        28.0663  -45.0182  -57.0876 H         1 UNK         0.1034 
     82 H82        27.0452  -43.6452  -57.3820 H         1 UNK         0.1034 
     83 H83        27.3301  -43.9682  -59.8655 H         1 UNK         0.0482 
     84 H84        29.3385  -47.5798  -59.7653 H         1 UNK         0.3460 
     85 H85        28.0404  -47.3280  -58.6155 H         1 UNK         0.3460 
     86 H86        26.2035  -46.3690  -58.5059 H         1 UNK         0.2989 
     87 H87        22.9236  -45.3816  -59.1802 H         1 UNK         0.0559 
     88 H88        24.2950  -47.5738  -60.8338 H         1 UNK         0.0848 
     89 H89        23.3319  -46.2552  -61.4835 H         1 UNK         0.0848 
     90 H90        22.5687  -47.4751  -60.4796 H         1 UNK         0.0848 
     91 H91        24.0941  -47.9006  -58.3940 H         1 UNK         0.3144 
     92 H92        25.0098  -47.1041  -55.1617 H         1 UNK         0.0727 
     93 H93        23.3203  -48.6567  -54.2424 H         1 UNK         0.0790 
     94 H94        22.3566  -48.5376  -55.7168 H         1 UNK         0.0790 
     95 H95        22.5512  -47.1390  -54.6690 H         1 UNK         0.0790 
     96 H96        24.6217  -49.6731  -56.0445 H         1 UNK         0.3215 
     97 H97        25.9748  -50.9451  -57.3585 H         1 UNK         0.0863 
     98 H98        28.5197  -49.6301  -58.4561 H         1 UNK         0.0808 
     99 H99        27.0764  -49.9575  -59.4085 H         1 UNK         0.0808 
    100 H100       27.9922  -51.2876  -58.7151 H         1 UNK         0.0808 
    101 H101       28.4636  -49.9440  -56.0394 H         1 UNK         0.3118 
    102 H102       27.4674  -51.1094  -52.8822 H         1 UNK         0.0546 
    103 H103       29.7127  -52.2458  -52.8487 H         1 UNK         0.0828 
    104 H104       29.6691  -52.3601  -54.6084 H         1 UNK         0.0828 
    105 H105       28.4828  -53.2192  -53.6406 H         1 UNK         0.0828 
    106 H106       29.8745  -49.9071  -53.9290 H         1 UNK         0.3005 
    107 H107       28.7325  -46.7786  -54.5132 H         1 UNK         0.1257 
    108 H108       30.3215  -46.0364  -52.4016 H         1 UNK         0.0775 
    109 H109       29.2883  -47.1435  -51.5602 H         1 UNK         0.0775 
    110 H110       28.3831  -42.8588  -52.1768 H         1 UNK         0.0840 
    111 H111       29.5724  -43.7540  -51.2645 H         1 UNK         0.0840 
    112 H112       31.3715  -47.4957  -53.7545 H         1 UNK         0.2987 
    113 H113       32.1307  -49.0601  -56.8989 H         1 UNK         0.0785 
    114 H114       33.8455  -47.2146  -56.9110 H         1 UNK         0.0798 
    115 H115       32.2642  -46.6712  -57.4453 H         1 UNK         0.0798 
    116 H116       32.8190  -46.2757  -55.8261 H         1 UNK         0.0798 
    117 H117       33.9128  -48.4685  -54.8442 H         1 UNK         0.3079 
    118 H118       33.4725  -51.4756  -52.9172 H         1 UNK         0.0794 
    119 H119       35.8616  -51.6117  -53.5793 H         1 UNK         0.0786 
    120 H120       35.6009  -50.4358  -54.8655 H         1 UNK         0.0786 
    121 H121       34.8176  -52.0082  -54.9348 H         1 UNK         0.0786 
    122 H122       34.9732  -48.9018  -52.9784 H         1 UNK         0.3032 
    123 H123       33.4185  -47.7299  -50.0602 H         1 UNK         0.1094 
    124 H124       36.2947  -48.7983  -50.1687 H         1 UNK         0.0794 
    125 H125       35.6807  -47.5860  -49.0426 H         1 UNK         0.0794 
    126 H126       35.0910  -49.2371  -48.9648 H         1 UNK         0.0794 
    127 H127       35.6902  -46.7397  -51.4480 H         1 UNK         0.3016 
@<TRIPOS>BOND
     1    1    2 1    
     2    1   67 1    
     3    1   68 1    
     4    1   69 1    
     5    2    3 2    
     6    2    4 am   BACKBONE|DICT|INTERRES
     7    4    5 1    
     8    4   70 1    
     9    5    6 1    
    10    5   65 1    
    11    5   71 1    
    12    6    7 1    
    13    6   72 1    
    14    6   73 1    
    15    7    8 1    
    16    8    9 1    
    17    8   74 1    
    18    8   75 1    
    19    9   10 ar   
    20    9   14 ar   
    21   10   11 ar   
    22   10   76 1    
    23   11   12 ar   
    24   11   48 1    
    25   12   13 ar   
    26   12   77 1    
    27   13   14 ar   
    28   13   15 1    
    29   14   78 1    
    30   15   16 1    
    31   15   79 1    
    32   15   80 1    
    33   16   17 1    
    34   17   18 1    
    35   17   81 1    
    36   17   82 1    
    37   18   19 1    
    38   18   22 1    
    39   18   83 1    
    40   19   20 am   BACKBONE|DICT|INTERRES
    41   19   21 2    
    42   20   84 1    
    43   20   85 1    
    44   22   23 am   BACKBONE|DICT|INTERRES
    45   22   86 1    
    46   23   24 2    
    47   23   25 1    
    48   25   26 1    
    49   25   27 1    
    50   25   87 1    
    51   26   88 1    
    52   26   89 1    
    53   26   90 1    
    54   27   28 am   BACKBONE|DICT|INTERRES
    55   27   91 1    
    56   28   29 2    
    57   28   30 1    
    58   30   31 1    
    59   30   32 1    
    60   30   92 1    
    61   31   93 1    
    62   31   94 1    
    63   31   95 1    
    64   32   33 am   BACKBONE|DICT|INTERRES
    65   32   96 1    
    66   33   34 2    
    67   33   35 1    
    68   35   36 1    
    69   35   37 1    
    70   35   97 1    
    71   36   98 1    
    72   36   99 1    
    73   36  100 1    
    74   37   38 am   BACKBONE|DICT|INTERRES
    75   37  101 1    
    76   38   39 2    
    77   38   40 1    
    78   40   41 1    
    79   40   42 1    
    80   40  102 1    
    81   41  103 1    
    82   41  104 1    
    83   41  105 1    
    84   42   43 am   BACKBONE|DICT|INTERRES
    85   42  106 1    
    86   43   44 2    
    87   43   45 1    
    88   45   46 1    
    89   45   49 1    
    90   45  107 1    
    91   46   47 1    
    92   46  108 1    
    93   46  109 1    
    94   47   48 1    
    95   48  110 1    
    96   48  111 1    
    97   49   50 am   BACKBONE|DICT|INTERRES
    98   49  112 1    
    99   50   51 2    
   100   50   52 1    
   101   52   53 1    
   102   52   54 1    
   103   52  113 1    
   104   53  114 1    
   105   53  115 1    
   106   53  116 1    
   107   54   55 am   BACKBONE|DICT|INTERRES
   108   54  117 1    
   109   55   56 2    
   110   55   57 1    
   111   57   58 1    
   112   57   59 1    
   113   57  118 1    
   114   58  119 1    
   115   58  120 1    
   116   58  121 1    
   117   59   60 am   BACKBONE|DICT|INTERRES
   118   59  122 1    
   119   60   61 2    
   120   60   62 1    
   121   62   63 1    
   122   62   64 1    
   123   62  123 1    
   124   63  124 1    
   125   63  125 1    
   126   63  126 1    
   127   64   65 am   BACKBONE|DICT|INTERRES
   128   64  127 1    
   129   65   66 2    
@<TRIPOS>SUBSTRUCTURE
     1 UNK         1 GROUP             0       ****    0 ROOT    
