@<TRIPOS>MOLECULE
3R134
127   129    1
SMALL
USER_CHARGES


@<TRIPOS>ATOM
      1 CA         36.0396  -45.0260  -56.8707 C.3       0 UNK        -0.1968 
      2 C          36.5534  -43.9551  -55.9099 C.2       0 UNK         0.4852 
      3 O          37.7656  -43.7833  -55.7942 O.2       0 UNK        -0.5359 
      4 N          35.6885  -43.2100  -55.2047 N.am      1 UNK        -0.4300 
      5 CA         34.2239  -43.3228  -55.1879 C.3       1 UNK         0.0863 
      6 C6         33.5649  -42.0609  -54.5737 C.3       11 UNK        -0.0953 
      7 S7         33.9480  -41.8065  -52.8012 S.3       11 UNK        -0.2369 
      8 C8         32.3126  -41.4435  -52.0819 C.3       11 UNK         0.0226 
      9 C9         31.3044  -42.5750  -52.2523 C.ar      11 UNK        -0.0699 
     10 C10        31.4301  -43.7617  -51.5216 C.ar      11 UNK        -0.0804 
     11 C11        30.4750  -44.7790  -51.6451 C.ar      11 UNK        -0.0871 
     12 C12        29.3857  -44.5925  -52.5011 C.ar      11 UNK        -0.1008 
     13 C13        29.2659  -43.4269  -53.2616 C.ar      11 UNK        -0.0735 
     14 C14        30.2223  -42.4176  -53.1236 C.ar      11 UNK        -0.0945 
     15 C15        28.1190  -43.2655  -54.2532 C.3       11 UNK         0.0169 
     16 S16        28.0443  -44.6260  -55.4679 S.3       11 UNK        -0.2669 
     17 C17        29.7783  -44.7081  -56.0437 C.3       11 UNK        -0.0850 
     18 CA         29.9158  -44.9414  -57.5653 C.3       10 UNK         0.0855 
     19 C          31.4081  -44.8960  -57.9994 C.2       10 UNK         0.5543 
     20 N          32.0894  -46.0270  -58.1334 N.am      10 UNK        -0.7343 
     21 O          31.9481  -43.8171  -58.2309 O.2       10 UNK        -0.5027 
     22 N          29.2017  -46.1563  -57.9694 N.am      10 UNK        -0.4495 
     23 C          28.8981  -46.5045  -59.2244 C.2       10 UNK         0.4903 
     24 O          29.2240  -45.8650  -60.2248 O.2       10 UNK        -0.4860 
     25 CA         28.0490  -47.7766  -59.3770 C.3       9 UNK         0.0227 
     26 CB         28.9600  -49.0069  -59.4496 C.3       9 UNK        -0.1964 
     27 N          27.0996  -47.9371  -58.2703 N.am      9 UNK        -0.4231 
     28 C          26.0020  -47.1803  -58.1080 C.2       9 UNK         0.5014 
     29 O          25.6509  -46.3108  -58.9085 O.2       9 UNK        -0.5270 
     30 CA         25.1645  -47.4330  -56.8387 C.3       8 UNK         0.0284 
     31 CB         23.7260  -46.8821  -56.9378 C.3       8 UNK        -0.1977 
     32 N          25.1628  -48.8401  -56.4272 N.am      8 UNK        -0.4342 
     33 C          24.7152  -49.8987  -57.1224 C.2       8 UNK         0.5039 
     34 O          24.1459  -49.8158  -58.2114 O.2       8 UNK        -0.5547 
     35 CA         24.9728  -51.2961  -56.5278 C.3       7 UNK         0.0281 
     36 CB         25.9431  -52.0842  -57.4238 C.3       7 UNK        -0.1963 
     37 N          25.5256  -51.2360  -55.1728 N.am      7 UNK        -0.4444 
     38 C          24.7921  -51.1418  -54.0560 C.2       7 UNK         0.5104 
     39 O          23.5617  -51.1791  -54.0374 O.2       7 UNK        -0.5100 
     40 CA         25.5603  -50.9499  -52.7360 C.3       6 UNK         0.0396 
     41 CB         25.7743  -52.3033  -52.0401 C.3       6 UNK        -0.1801 
     42 N          26.8550  -50.2770  -52.8940 N.am      6 UNK        -0.4747 
     43 C          27.0223  -49.0029  -53.2829 C.2       6 UNK         0.5012 
     44 O          26.0972  -48.2579  -53.6026 O.2       6 UNK        -0.5003 
     45 CA         28.4753  -48.4969  -53.3627 C.3       5 UNK         0.0782 
     46 C46        28.9737  -48.1257  -51.9412 C.3       11 UNK        -0.0868 
     47 S47        30.7069  -47.5510  -51.9049 S.3       11 UNK        -0.2515 
     48 C48        30.6138  -46.0680  -50.8431 C.3       11 UNK         0.0199 
     49 N          29.3612  -49.4670  -54.0152 N.am      5 UNK        -0.4607 
     50 C          29.2307  -49.9759  -55.2482 C.2       4 UNK         0.5031 
     51 O          28.3104  -49.6961  -56.0225 O.2       4 UNK        -0.5119 
     52 CA         30.3399  -50.9704  -55.6495 C.3       4 UNK         0.0263 
     53 CB         30.2009  -51.5542  -57.0695 C.3       4 UNK        -0.1967 
     54 N          31.6936  -50.4377  -55.4412 N.am      4 UNK        -0.4237 
     55 C          32.1951  -49.2867  -55.9163 C.2       3 UNK         0.4908 
     56 O          31.5725  -48.4806  -56.6123 O.2       3 UNK        -0.5102 
     57 CA         33.6452  -48.9798  -55.5336 C.3       3 UNK         0.0241 
     58 CB         34.5186  -48.7156  -56.7726 C.3       3 UNK        -0.1971 
     59 N          33.6475  -47.8077  -54.6661 N.am      3 UNK        -0.4139 
     60 C          34.4058  -47.6497  -53.5763 C.2       2 UNK         0.5016 
     61 O          35.2478  -48.4711  -53.2068 O.2       2 UNK        -0.5319 
     62 CA         34.2011  -46.3459  -52.7791 C.3       2 UNK         0.0286 
     63 CB         35.0113  -46.3089  -51.4704 C.3       2 UNK        -0.1963 
     64 N          34.5219  -45.1556  -53.5661 N.am      2 UNK        -0.4790 
     65 C          33.7304  -44.6149  -54.5030 C.2       1 UNK         0.5024 
     66 O          32.6608  -45.1108  -54.8465 O.2       1 UNK        -0.4888 
     67 H67        35.2613  -44.6380  -57.5266 H         1 UNK         0.0892 
     68 H68        36.8492  -45.3857  -57.5053 H         1 UNK         0.0892 
     69 H69        35.6469  -45.8807  -56.3216 H         1 UNK         0.0892 
     70 H70        36.0613  -42.5054  -54.5838 H         1 UNK         0.3107 
     71 H71        33.8856  -43.3727  -56.2242 H         1 UNK         0.0773 
     72 H72        33.8921  -41.1737  -55.1179 H         1 UNK         0.0680 
     73 H73        32.4856  -42.1038  -54.7216 H         1 UNK         0.0680 
     74 H74        31.9345  -40.5199  -52.5229 H         1 UNK         0.0650 
     75 H75        32.4392  -41.2395  -51.0178 H         1 UNK         0.0650 
     76 H76        32.2722  -43.8862  -50.8546 H         1 UNK         0.1397 
     77 H77        28.6414  -45.3674  -52.6069 H         1 UNK         0.1363 
     78 H78        30.1273  -41.5074  -53.6997 H         1 UNK         0.1355 
     79 H79        27.1760  -43.2247  -53.7066 H         1 UNK         0.0707 
     80 H80        28.2045  -42.3221  -54.7948 H         1 UNK         0.0707 
     81 H81        30.2629  -45.5163  -55.4936 H         1 UNK         0.1034 
     82 H82        30.3009  -43.7918  -55.7634 H         1 UNK         0.1034 
     83 H83        29.4243  -44.1063  -58.0685 H         1 UNK         0.0482 
     84 H84        31.6852  -46.9083  -57.8344 H         1 UNK         0.3460 
     85 H85        33.0454  -45.9908  -58.4420 H         1 UNK         0.3460 
     86 H86        28.9013  -46.7588  -57.2186 H         1 UNK         0.2989 
     87 H87        27.4851  -47.7078  -60.3096 H         1 UNK         0.0559 
     88 H88        29.6148  -49.0459  -58.5806 H         1 UNK         0.0848 
     89 H89        29.5965  -48.9703  -60.3346 H         1 UNK         0.0848 
     90 H90        28.3889  -49.9346  -59.4917 H         1 UNK         0.0848 
     91 H91        27.3348  -48.6202  -57.5568 H         1 UNK         0.3144 
     92 H92        25.6678  -46.8872  -56.0390 H         1 UNK         0.0727 
     93 H93        23.1678  -47.0657  -56.0198 H         1 UNK         0.0790 
     94 H94        23.1747  -47.3336  -57.7631 H         1 UNK         0.0790 
     95 H95        23.7313  -45.8039  -57.1020 H         1 UNK         0.0790 
     96 H96        25.5970  -49.0146  -55.5284 H         1 UNK         0.3215 
     97 H97        24.0186  -51.8273  -56.5070 H         1 UNK         0.0863 
     98 H98        26.8853  -51.5533  -57.5568 H         1 UNK         0.0808 
     99 H99        25.5176  -52.2382  -58.4164 H         1 UNK         0.0808 
    100 H100       26.1623  -53.0686  -57.0100 H         1 UNK         0.0808 
    101 H101       26.5312  -51.1703  -55.0963 H         1 UNK         0.3118 
    102 H102       24.9407  -50.3280  -52.0863 H         1 UNK         0.0546 
    103 H103       26.2363  -52.1785  -51.0606 H         1 UNK         0.0828 
    104 H104       26.4079  -52.9668  -52.6300 H         1 UNK         0.0828 
    105 H105       24.8240  -52.8159  -51.8835 H         1 UNK         0.0828 
    106 H106       27.6776  -50.8171  -52.6652 H         1 UNK         0.3005 
    107 H107       28.4741  -47.5949  -53.9794 H         1 UNK         0.1257 
    108 H108       28.9089  -48.9871  -51.2733 H         1 UNK         0.0775 
    109 H109       28.3258  -47.3643  -51.5037 H         1 UNK         0.0775 
    110 H110       29.7870  -46.1533  -50.1369 H         1 UNK         0.0840 
    111 H111       31.5205  -46.0365  -50.2370 H         1 UNK         0.0840 
    112 H112       30.1746  -49.7305  -53.4784 H         1 UNK         0.2987 
    113 H113       30.2290  -51.8073  -54.9581 H         1 UNK         0.0785 
    114 H114       30.8041  -52.4559  -57.1743 H         1 UNK         0.0798 
    115 H115       29.1727  -51.8340  -57.2951 H         1 UNK         0.0798 
    116 H116       30.5367  -50.8585  -57.8343 H         1 UNK         0.0798 
    117 H117       32.2966  -51.0101  -54.8661 H         1 UNK         0.3079 
    118 H118       34.0568  -49.8406  -55.0019 H         1 UNK         0.0794 
    119 H119       34.4975  -49.5673  -57.4535 H         1 UNK         0.0786 
    120 H120       35.5588  -48.5483  -56.4929 H         1 UNK         0.0786 
    121 H121       34.1783  -47.8428  -57.3297 H         1 UNK         0.0786 
    122 H122       32.9858  -47.0724  -54.9041 H         1 UNK         0.3032 
    123 H123       33.1461  -46.2955  -52.5103 H         1 UNK         0.1094 
    124 H124       36.0854  -46.3374  -51.6579 H         1 UNK         0.0794 
    125 H125       34.7933  -45.4086  -50.8954 H         1 UNK         0.0794 
    126 H126       34.7664  -47.1624  -50.8367 H         1 UNK         0.0794 
    127 H127       35.3983  -44.6978  -53.3608 H         1 UNK         0.3016 
@<TRIPOS>BOND
     1    1    2 1    
     2    1   67 1    
     3    1   68 1    
     4    1   69 1    
     5    2    3 2    
     6    2    4 am   BACKBONE|DICT|INTERRES
     7    4    5 1    
     8    4   70 1    
     9    5    6 1    
    10    5   65 1    
    11    5   71 1    
    12    6    7 1    
    13    6   72 1    
    14    6   73 1    
    15    7    8 1    
    16    8    9 1    
    17    8   74 1    
    18    8   75 1    
    19    9   10 ar   
    20    9   14 ar   
    21   10   11 ar   
    22   10   76 1    
    23   11   12 ar   
    24   11   48 1    
    25   12   13 ar   
    26   12   77 1    
    27   13   14 ar   
    28   13   15 1    
    29   14   78 1    
    30   15   16 1    
    31   15   79 1    
    32   15   80 1    
    33   16   17 1    
    34   17   18 1    
    35   17   81 1    
    36   17   82 1    
    37   18   19 1    
    38   18   22 1    
    39   18   83 1    
    40   19   20 am   BACKBONE|DICT|INTERRES
    41   19   21 2    
    42   20   84 1    
    43   20   85 1    
    44   22   23 am   BACKBONE|DICT|INTERRES
    45   22   86 1    
    46   23   24 2    
    47   23   25 1    
    48   25   26 1    
    49   25   27 1    
    50   25   87 1    
    51   26   88 1    
    52   26   89 1    
    53   26   90 1    
    54   27   28 am   BACKBONE|DICT|INTERRES
    55   27   91 1    
    56   28   29 2    
    57   28   30 1    
    58   30   31 1    
    59   30   32 1    
    60   30   92 1    
    61   31   93 1    
    62   31   94 1    
    63   31   95 1    
    64   32   33 am   BACKBONE|DICT|INTERRES
    65   32   96 1    
    66   33   34 2    
    67   33   35 1    
    68   35   36 1    
    69   35   37 1    
    70   35   97 1    
    71   36   98 1    
    72   36   99 1    
    73   36  100 1    
    74   37   38 am   BACKBONE|DICT|INTERRES
    75   37  101 1    
    76   38   39 2    
    77   38   40 1    
    78   40   41 1    
    79   40   42 1    
    80   40  102 1    
    81   41  103 1    
    82   41  104 1    
    83   41  105 1    
    84   42   43 am   BACKBONE|DICT|INTERRES
    85   42  106 1    
    86   43   44 2    
    87   43   45 1    
    88   45   46 1    
    89   45   49 1    
    90   45  107 1    
    91   46   47 1    
    92   46  108 1    
    93   46  109 1    
    94   47   48 1    
    95   48  110 1    
    96   48  111 1    
    97   49   50 am   BACKBONE|DICT|INTERRES
    98   49  112 1    
    99   50   51 2    
   100   50   52 1    
   101   52   53 1    
   102   52   54 1    
   103   52  113 1    
   104   53  114 1    
   105   53  115 1    
   106   53  116 1    
   107   54   55 am   BACKBONE|DICT|INTERRES
   108   54  117 1    
   109   55   56 2    
   110   55   57 1    
   111   57   58 1    
   112   57   59 1    
   113   57  118 1    
   114   58  119 1    
   115   58  120 1    
   116   58  121 1    
   117   59   60 am   BACKBONE|DICT|INTERRES
   118   59  122 1    
   119   60   61 2    
   120   60   62 1    
   121   62   63 1    
   122   62   64 1    
   123   62  123 1    
   124   63  124 1    
   125   63  125 1    
   126   63  126 1    
   127   64   65 am   BACKBONE|DICT|INTERRES
   128   64  127 1    
   129   65   66 2    
@<TRIPOS>SUBSTRUCTURE
     1 UNK         1 GROUP             0       ****    0 ROOT    
