@<TRIPOS>MOLECULE
3R134
127   129    1
SMALL
USER_CHARGES


@<TRIPOS>ATOM
      1 CA         38.0143  -42.8545  -55.5766 C.3       0 UNK        -0.1968 
      2 C          37.4367  -44.2111  -55.9526 C.2       0 UNK         0.4852 
      3 O          38.1848  -45.1049  -56.3510 O.2       0 UNK        -0.5359 
      4 N          36.1127  -44.3723  -55.8255 N.am      1 UNK        -0.4300 
      5 CA         35.3789  -45.6070  -56.1345 C.3       1 UNK         0.0863 
      6 C6         33.9100  -45.3106  -56.5261 C.3       11 UNK        -0.0953 
      7 S7         32.9317  -44.4778  -55.2266 S.3       11 UNK        -0.2369 
      8 C8         31.9189  -45.8755  -54.6634 C.3       11 UNK         0.0226 
      9 C9         30.8014  -45.4424  -53.7311 C.ar      11 UNK        -0.0699 
     10 C10        30.8323  -45.7850  -52.3781 C.ar      11 UNK        -0.0804 
     11 C11        29.7357  -45.5152  -51.5517 C.ar      11 UNK        -0.0871 
     12 C12        28.6264  -44.8413  -52.0752 C.ar      11 UNK        -0.1008 
     13 C13        28.5991  -44.4738  -53.4238 C.ar      11 UNK        -0.0735 
     14 C14        29.6875  -44.7760  -54.2433 C.ar      11 UNK        -0.0945 
     15 C15        27.3829  -43.7921  -54.0227 C.3       11 UNK         0.0169 
     16 S16        26.1853  -45.0298  -54.6069 S.3       11 UNK        -0.2669 
     17 C17        25.2411  -44.0561  -55.8305 C.3       11 UNK        -0.0850 
     18 CA         25.1518  -44.7534  -57.2195 C.3       10 UNK         0.0855 
     19 C          24.2296  -43.9917  -58.2206 C.2       10 UNK         0.5543 
     20 N          24.4943  -44.0170  -59.5226 N.am      10 UNK        -0.7343 
     21 O          23.2377  -43.3886  -57.8175 O.2       10 UNK        -0.5027 
     22 N          26.4528  -45.1498  -57.7857 N.am      10 UNK        -0.4495 
     23 C          27.4573  -44.3359  -58.1440 C.2       10 UNK         0.4903 
     24 O          27.4790  -43.1277  -57.9089 O.2       10 UNK        -0.4860 
     25 CA         28.6310  -44.9580  -58.9327 C.3       9 UNK         0.0227 
     26 CB         29.8551  -45.1584  -58.0250 C.3       9 UNK        -0.1964 
     27 N          28.3102  -46.2340  -59.5791 N.am      9 UNK        -0.4231 
     28 C          27.3970  -46.4173  -60.5444 C.2       9 UNK         0.5014 
     29 O          26.7703  -45.5007  -61.0780 O.2       9 UNK        -0.5270 
     30 CA         27.0836  -47.8775  -60.9322 C.3       8 UNK         0.0284 
     31 CB         27.9210  -48.3017  -62.1493 C.3       8 UNK        -0.1977 
     32 N          27.2783  -48.8475  -59.8421 N.am      8 UNK        -0.4342 
     33 C          26.6733  -48.7938  -58.6457 C.2       8 UNK         0.5039 
     34 O          25.8633  -47.9128  -58.3480 O.2       8 UNK        -0.5547 
     35 CA         27.0695  -49.8609  -57.6048 C.3       7 UNK         0.0281 
     36 CB         28.5785  -50.1748  -57.6289 C.3       7 UNK        -0.1963 
     37 N          26.7058  -49.4093  -56.2598 N.am      7 UNK        -0.4444 
     38 C          25.5004  -49.5657  -55.6944 C.2       7 UNK         0.5104 
     39 O          24.6045  -50.2570  -56.1834 O.2       7 UNK        -0.5100 
     40 CA         25.2357  -48.7966  -54.3809 C.3       6 UNK         0.0396 
     41 CB         24.2442  -49.5273  -53.4501 C.3       6 UNK        -0.1801 
     42 N          26.4530  -48.4006  -53.6583 N.am      6 UNK        -0.4747 
     43 C          27.3586  -49.2174  -53.0996 C.2       6 UNK         0.5012 
     44 O          27.2613  -50.4467  -53.0766 O.2       6 UNK        -0.5003 
     45 CA         28.5872  -48.5451  -52.4620 C.3       5 UNK         0.0782 
     46 C46        28.4395  -48.4565  -50.9180 C.3       11 UNK        -0.0868 
     47 S47        29.9283  -47.8419  -50.0496 S.3       11 UNK        -0.2515 
     48 C48        29.7208  -46.0286  -50.1192 C.3       11 UNK         0.0199 
     49 N          29.8120  -49.2243  -52.8849 N.am      5 UNK        -0.4607 
     50 C          30.3245  -49.1781  -54.1192 C.2       4 UNK         0.5031 
     51 O          29.8012  -48.5449  -55.0380 O.2       4 UNK        -0.5119 
     52 CA         31.6379  -49.9555  -54.3640 C.3       4 UNK         0.0263 
     53 CB         32.2143  -49.7063  -55.7706 C.3       4 UNK        -0.1967 
     54 N          32.6831  -49.6770  -53.3685 N.am      4 UNK        -0.4237 
     55 C          32.7010  -50.1373  -52.1083 C.2       3 UNK         0.4908 
     56 O          31.8044  -50.8435  -51.6433 O.2       3 UNK        -0.5102 
     57 CA         33.8982  -49.7804  -51.2053 C.3       3 UNK         0.0241 
     58 CB         34.4756  -51.0395  -50.5326 C.3       3 UNK        -0.1971 
     59 N          34.9891  -49.0802  -51.8883 N.am      3 UNK        -0.4139 
     60 C          35.0467  -47.7610  -52.1079 C.2       2 UNK         0.5016 
     61 O          34.1342  -46.9845  -51.8265 O.2       2 UNK        -0.5319 
     62 CA         36.3453  -47.1993  -52.7207 C.3       2 UNK         0.0286 
     63 CB         37.4083  -48.2687  -53.0680 C.3       2 UNK        -0.1963 
     64 N          36.0844  -46.3405  -53.8804 N.am      2 UNK        -0.4790 
     65 C          35.4916  -46.6894  -55.0333 C.2       1 UNK         0.5024 
     66 O          35.0468  -47.8175  -55.2534 O.2       1 UNK        -0.4888 
     67 H67        38.7437  -42.9661  -54.7748 H         1 UNK         0.0892 
     68 H68        38.5169  -42.4102  -56.4352 H         1 UNK         0.0892 
     69 H69        37.2434  -42.1615  -55.2398 H         1 UNK         0.0892 
     70 H70        35.5428  -43.6064  -55.4928 H         1 UNK         0.3107 
     71 H71        35.8473  -46.0492  -57.0167 H         1 UNK         0.0773 
     72 H72        33.8977  -44.6635  -57.4045 H         1 UNK         0.0680 
     73 H73        33.4094  -46.2268  -56.8446 H         1 UNK         0.0680 
     74 H74        32.5601  -46.6130  -54.1791 H         1 UNK         0.0650 
     75 H75        31.4750  -46.3726  -55.5267 H         1 UNK         0.0650 
     76 H76        31.6787  -46.3270  -51.9804 H         1 UNK         0.1397 
     77 H77        27.7692  -44.6365  -51.4480 H         1 UNK         0.1363 
     78 H78        29.6546  -44.5145  -55.2898 H         1 UNK         0.1355 
     79 H79        26.9070  -43.1400  -53.2888 H         1 UNK         0.0707 
     80 H80        27.6962  -43.1543  -54.8510 H         1 UNK         0.0707 
     81 H81        24.2412  -43.9068  -55.4193 H         1 UNK         0.1034 
     82 H82        25.6663  -43.0574  -55.9367 H         1 UNK         0.1034 
     83 H83        24.6329  -45.6984  -57.0545 H         1 UNK         0.0482 
     84 H84        25.2970  -44.5189  -59.8822 H         1 UNK         0.3460 
     85 H85        23.8834  -43.5288  -60.1577 H         1 UNK         0.3460 
     86 H86        26.5003  -46.1324  -58.0411 H         1 UNK         0.2989 
     87 H87        28.9018  -44.2506  -59.7190 H         1 UNK         0.0559 
     88 H88        30.1524  -44.2185  -57.5580 H         1 UNK         0.0848 
     89 H89        29.6518  -45.8766  -57.2294 H         1 UNK         0.0848 
     90 H90        30.7160  -45.5181  -58.5888 H         1 UNK         0.0848 
     91 H91        28.7671  -47.0535  -59.2080 H         1 UNK         0.3144 
     92 H92        26.0290  -47.9146  -61.2133 H         1 UNK         0.0727 
     93 H93        27.6365  -49.2932  -62.5024 H         1 UNK         0.0790 
     94 H94        28.9876  -48.3177  -61.9215 H         1 UNK         0.0790 
     95 H95        27.7764  -47.6112  -62.9817 H         1 UNK         0.0790 
     96 H96        27.9272  -49.6009  -60.0199 H         1 UNK         0.3215 
     97 H97        26.5220  -50.7758  -57.8408 H         1 UNK         0.0863 
     98 H98        28.8589  -50.8248  -56.7995 H         1 UNK         0.0808 
     99 H99        28.8675  -50.6923  -58.5440 H         1 UNK         0.0808 
    100 H100       29.1818  -49.2690  -57.5553 H         1 UNK         0.0808 
    101 H101       27.3770  -48.8165  -55.7903 H         1 UNK         0.3118 
    102 H102       24.7610  -47.8626  -54.6849 H         1 UNK         0.0546 
    103 H103       23.2787  -49.6642  -53.9383 H         1 UNK         0.0828 
    104 H104       24.0645  -48.9602  -52.5370 H         1 UNK         0.0828 
    105 H105       24.6046  -50.5165  -53.1672 H         1 UNK         0.0828 
    106 H106       26.6262  -47.4027  -53.6422 H         1 UNK         0.3005 
    107 H107       28.6408  -47.5333  -52.8625 H         1 UNK         0.1257 
    108 H108       28.2165  -49.4425  -50.5054 H         1 UNK         0.0775 
    109 H109       27.5918  -47.8215  -50.6539 H         1 UNK         0.0775 
    110 H110       28.7961  -45.7530  -49.6097 H         1 UNK         0.0840 
    111 H111       30.5329  -45.5568  -49.5644 H         1 UNK         0.0840 
    112 H112       30.2926  -49.7830  -52.1867 H         1 UNK         0.2987 
    113 H113       31.3847  -51.0158  -54.2998 H         1 UNK         0.0785 
    114 H114       31.4973  -49.9837  -56.5439 H         1 UNK         0.0798 
    115 H115       33.1155  -50.2952  -55.9417 H         1 UNK         0.0798 
    116 H116       32.4681  -48.6570  -55.9224 H         1 UNK         0.0798 
    117 H117       33.4451  -49.0854  -53.6714 H         1 UNK         0.3079 
    118 H118       33.5082  -49.1310  -50.4182 H         1 UNK         0.0794 
    119 H119       33.7169  -51.5556  -49.9425 H         1 UNK         0.0786 
    120 H120       35.2902  -50.7886  -49.8528 H         1 UNK         0.0786 
    121 H121       34.8565  -51.7504  -51.2669 H         1 UNK         0.0786 
    122 H122       35.7741  -49.6455  -52.1789 H         1 UNK         0.3032 
    123 H123       36.7736  -46.5531  -51.9526 H         1 UNK         0.1094 
    124 H124       38.3089  -47.8038  -53.4699 H         1 UNK         0.0794 
    125 H125       37.7141  -48.8290  -52.1833 H         1 UNK         0.0794 
    126 H126       37.0516  -48.9824  -53.8117 H         1 UNK         0.0794 
    127 H127       36.3720  -45.3772  -53.7843 H         1 UNK         0.3016 
@<TRIPOS>BOND
     1    1    2 1    
     2    1   67 1    
     3    1   68 1    
     4    1   69 1    
     5    2    3 2    
     6    2    4 am   BACKBONE|DICT|INTERRES
     7    4    5 1    
     8    4   70 1    
     9    5    6 1    
    10    5   65 1    
    11    5   71 1    
    12    6    7 1    
    13    6   72 1    
    14    6   73 1    
    15    7    8 1    
    16    8    9 1    
    17    8   74 1    
    18    8   75 1    
    19    9   10 ar   
    20    9   14 ar   
    21   10   11 ar   
    22   10   76 1    
    23   11   12 ar   
    24   11   48 1    
    25   12   13 ar   
    26   12   77 1    
    27   13   14 ar   
    28   13   15 1    
    29   14   78 1    
    30   15   16 1    
    31   15   79 1    
    32   15   80 1    
    33   16   17 1    
    34   17   18 1    
    35   17   81 1    
    36   17   82 1    
    37   18   19 1    
    38   18   22 1    
    39   18   83 1    
    40   19   20 am   BACKBONE|DICT|INTERRES
    41   19   21 2    
    42   20   84 1    
    43   20   85 1    
    44   22   23 am   BACKBONE|DICT|INTERRES
    45   22   86 1    
    46   23   24 2    
    47   23   25 1    
    48   25   26 1    
    49   25   27 1    
    50   25   87 1    
    51   26   88 1    
    52   26   89 1    
    53   26   90 1    
    54   27   28 am   BACKBONE|DICT|INTERRES
    55   27   91 1    
    56   28   29 2    
    57   28   30 1    
    58   30   31 1    
    59   30   32 1    
    60   30   92 1    
    61   31   93 1    
    62   31   94 1    
    63   31   95 1    
    64   32   33 am   BACKBONE|DICT|INTERRES
    65   32   96 1    
    66   33   34 2    
    67   33   35 1    
    68   35   36 1    
    69   35   37 1    
    70   35   97 1    
    71   36   98 1    
    72   36   99 1    
    73   36  100 1    
    74   37   38 am   BACKBONE|DICT|INTERRES
    75   37  101 1    
    76   38   39 2    
    77   38   40 1    
    78   40   41 1    
    79   40   42 1    
    80   40  102 1    
    81   41  103 1    
    82   41  104 1    
    83   41  105 1    
    84   42   43 am   BACKBONE|DICT|INTERRES
    85   42  106 1    
    86   43   44 2    
    87   43   45 1    
    88   45   46 1    
    89   45   49 1    
    90   45  107 1    
    91   46   47 1    
    92   46  108 1    
    93   46  109 1    
    94   47   48 1    
    95   48  110 1    
    96   48  111 1    
    97   49   50 am   BACKBONE|DICT|INTERRES
    98   49  112 1    
    99   50   51 2    
   100   50   52 1    
   101   52   53 1    
   102   52   54 1    
   103   52  113 1    
   104   53  114 1    
   105   53  115 1    
   106   53  116 1    
   107   54   55 am   BACKBONE|DICT|INTERRES
   108   54  117 1    
   109   55   56 2    
   110   55   57 1    
   111   57   58 1    
   112   57   59 1    
   113   57  118 1    
   114   58  119 1    
   115   58  120 1    
   116   58  121 1    
   117   59   60 am   BACKBONE|DICT|INTERRES
   118   59  122 1    
   119   60   61 2    
   120   60   62 1    
   121   62   63 1    
   122   62   64 1    
   123   62  123 1    
   124   63  124 1    
   125   63  125 1    
   126   63  126 1    
   127   64   65 am   BACKBONE|DICT|INTERRES
   128   64  127 1    
   129   65   66 2    
@<TRIPOS>SUBSTRUCTURE
     1 UNK         1 GROUP             0       ****    0 ROOT    
