@<TRIPOS>MOLECULE
3R134
127   129    1
SMALL
USER_CHARGES


@<TRIPOS>ATOM
      1 CA         29.6456  -44.4667  -49.9867 C.3       0 UNK        -0.1968 
      2 C          30.9543  -45.1145  -49.5571 C.2       0 UNK         0.4852 
      3 O          31.0781  -45.5412  -48.4076 O.2       0 UNK        -0.5359 
      4 N          31.9303  -45.1795  -50.4706 N.am      1 UNK        -0.4300 
      5 CA         33.2278  -45.8334  -50.2799 C.3       1 UNK         0.0863 
      6 C6         34.3275  -45.1524  -51.1402 C.3       11 UNK        -0.0953 
      7 S7         34.0443  -45.3085  -52.9351 S.3       11 UNK        -0.2369 
      8 C8         33.5745  -43.6135  -53.4024 C.3       11 UNK         0.0226 
      9 C9         32.7320  -43.6110  -54.6698 C.ar      11 UNK        -0.0699 
     10 C10        33.2528  -44.1163  -55.8630 C.ar      11 UNK        -0.0804 
     11 C11        32.4715  -44.1539  -57.0198 C.ar      11 UNK        -0.0871 
     12 C12        31.1635  -43.6619  -56.9855 C.ar      11 UNK        -0.1008 
     13 C13        30.6300  -43.1324  -55.8003 C.ar      11 UNK        -0.0735 
     14 C14        31.4254  -43.1151  -54.6496 C.ar      11 UNK        -0.0945 
     15 C15        29.2068  -42.5804  -55.6879 C.3       11 UNK         0.0169 
     16 S16        28.1737  -42.7214  -57.1874 S.3       11 UNK        -0.2669 
     17 C17        26.5098  -42.8107  -56.4417 C.3       11 UNK        -0.0850 
     18 CA         26.1409  -44.2661  -56.0404 C.3       10 UNK         0.0855 
     19 C          24.8142  -44.3653  -55.2402 C.2       10 UNK         0.5543 
     20 N          24.6851  -45.3773  -54.3945 N.am      10 UNK        -0.7343 
     21 O          23.9184  -43.5328  -55.3633 O.2       10 UNK        -0.5027 
     22 N          26.1989  -45.2041  -57.1720 N.am      10 UNK        -0.4495 
     23 C          25.3785  -45.2343  -58.2305 C.2       10 UNK         0.4903 
     24 O          24.4041  -44.4970  -58.3792 O.2       10 UNK        -0.4860 
     25 CA         25.7088  -46.2501  -59.3309 C.3       9 UNK         0.0227 
     26 CB         26.7947  -45.6894  -60.2661 C.3       9 UNK        -0.1964 
     27 N          26.1571  -47.5304  -58.7756 N.am      9 UNK        -0.4231 
     28 C          25.4843  -48.6827  -58.8940 C.2       9 UNK         0.5014 
     29 O          24.3884  -48.7872  -59.4477 O.2       9 UNK        -0.5270 
     30 CA         26.1505  -49.9493  -58.3338 C.3       8 UNK         0.0284 
     31 CB         27.1724  -50.5089  -59.3373 C.3       8 UNK        -0.1977 
     32 N          26.7944  -49.7650  -57.0323 N.am      8 UNK        -0.4342 
     33 C          26.1360  -49.6077  -55.8753 C.2       8 UNK         0.5039 
     34 O          24.9125  -49.4997  -55.7897 O.2       8 UNK        -0.5547 
     35 CA         26.9834  -49.5981  -54.5940 C.3       7 UNK         0.0281 
     36 CB         27.4579  -51.0173  -54.2384 C.3       7 UNK        -0.1963 
     37 N          28.1389  -48.7139  -54.7282 N.am      7 UNK        -0.4444 
     38 C          28.1163  -47.4038  -54.4531 C.2       7 UNK         0.5104 
     39 O          27.1409  -46.8223  -53.9785 O.2       7 UNK        -0.5100 
     40 CA         29.3842  -46.5963  -54.7841 C.3       6 UNK         0.0396 
     41 CB         30.2840  -46.4762  -53.5464 C.3       6 UNK        -0.1801 
     42 N          30.1452  -47.1600  -55.9026 N.am      6 UNK        -0.4747 
     43 C          29.7031  -47.1747  -57.1696 C.2       6 UNK         0.5012 
     44 O          28.6161  -46.7063  -57.5104 O.2       6 UNK        -0.5003 
     45 CA         30.5536  -47.9064  -58.2273 C.3       5 UNK         0.0782 
     46 C46        31.4386  -46.9382  -59.0542 C.3       11 UNK        -0.0868 
     47 S47        33.0534  -46.5388  -58.2957 S.3       11 UNK        -0.2515 
     48 C48        33.0584  -44.7187  -58.3030 C.3       11 UNK         0.0199 
     49 N          31.3037  -49.0445  -57.6868 N.am      5 UNK        -0.4607 
     50 C          30.7572  -50.1274  -57.1199 C.2       4 UNK         0.5031 
     51 O          29.5433  -50.3018  -57.0192 O.2       4 UNK        -0.5119 
     52 CA         31.7194  -51.1664  -56.5211 C.3       4 UNK         0.0263 
     53 CB         32.0720  -52.2331  -57.5691 C.3       4 UNK        -0.1967 
     54 N          32.9523  -50.5920  -55.9675 N.am      4 UNK        -0.4237 
     55 C          32.9967  -49.7008  -54.9669 C.2       3 UNK         0.4908 
     56 O          31.9957  -49.2096  -54.4427 O.2       3 UNK        -0.5102 
     57 CA         34.3937  -49.2463  -54.5152 C.3       3 UNK         0.0241 
     58 CB         34.8120  -47.9821  -55.2834 C.3       3 UNK        -0.1971 
     59 N          34.4389  -48.9821  -53.0736 N.am      3 UNK        -0.4139 
     60 C          34.3582  -49.9306  -52.1278 C.2       2 UNK         0.5016 
     61 O          34.2819  -51.1342  -52.3823 O.2       2 UNK        -0.5319 
     62 CA         34.4039  -49.4930  -50.6486 C.3       2 UNK         0.0286 
     63 CB         35.7070  -49.9729  -49.9859 C.3       2 UNK        -0.1963 
     64 N          34.2775  -48.0471  -50.4367 N.am      2 UNK        -0.4790 
     65 C          33.1293  -47.3611  -50.5166 C.2       1 UNK         0.5024 
     66 O          32.0467  -47.8914  -50.7769 O.2       1 UNK        -0.4888 
     67 H67        29.7186  -44.0140  -50.9755 H         1 UNK         0.0892 
     68 H68        28.8499  -45.2109  -50.0108 H         1 UNK         0.0892 
     69 H69        29.3623  -43.6869  -49.2802 H         1 UNK         0.0892 
     70 H70        31.7567  -44.8516  -51.4084 H         1 UNK         0.3107 
     71 H71        33.5184  -45.7084  -49.2345 H         1 UNK         0.0773 
     72 H72        34.4012  -44.0969  -50.8737 H         1 UNK         0.0680 
     73 H73        35.3109  -45.5672  -50.9146 H         1 UNK         0.0680 
     74 H74        34.4756  -43.0189  -53.5581 H         1 UNK         0.0650 
     75 H75        33.0279  -43.1452  -52.5826 H         1 UNK         0.0650 
     76 H76        34.2628  -44.5029  -55.8846 H         1 UNK         0.1397 
     77 H77        30.5719  -43.6997  -57.8883 H         1 UNK         0.1363 
     78 H78        31.0187  -42.7187  -53.7293 H         1 UNK         0.1355 
     79 H79        29.2554  -41.5281  -55.4044 H         1 UNK         0.0707 
     80 H80        28.7120  -43.0979  -54.8653 H         1 UNK         0.0707 
     81 H81        26.4693  -42.1468  -55.5761 H         1 UNK         0.1034 
     82 H82        25.7861  -42.4157  -57.1567 H         1 UNK         0.1034 
     83 H83        26.9208  -44.5963  -55.3563 H         1 UNK         0.0482 
     84 H84        23.8397  -45.4734  -53.8552 H         1 UNK         0.3460 
     85 H85        25.4581  -46.0234  -54.2541 H         1 UNK         0.3460 
     86 H86        27.0119  -45.8123  -57.1812 H         1 UNK         0.2989 
     87 H87        24.8036  -46.3872  -59.9259 H         1 UNK         0.0559 
     88 H88        27.7284  -45.4926  -59.7378 H         1 UNK         0.0848 
     89 H89        26.4731  -44.7485  -60.7145 H         1 UNK         0.0848 
     90 H90        27.0102  -46.3798  -61.0816 H         1 UNK         0.0848 
     91 H91        27.0429  -47.5193  -58.2797 H         1 UNK         0.3144 
     92 H92        25.3669  -50.6999  -58.2084 H         1 UNK         0.0727 
     93 H93        27.9985  -49.8175  -59.5034 H         1 UNK         0.0790 
     94 H94        26.7060  -50.6983  -60.3051 H         1 UNK         0.0790 
     95 H95        27.5927  -51.4532  -58.9903 H         1 UNK         0.0790 
     96 H96        27.8052  -49.8971  -57.0035 H         1 UNK         0.3215 
     97 H97        26.3498  -49.2462  -53.7764 H         1 UNK         0.0863 
     98 H98        28.0099  -51.0246  -53.2984 H         1 UNK         0.0808 
     99 H99        28.1048  -51.4396  -55.0081 H         1 UNK         0.0808 
    100 H100       26.6092  -51.6924  -54.1204 H         1 UNK         0.0808 
    101 H101       28.9746  -49.1044  -55.1439 H         1 UNK         0.3118 
    102 H102       29.0748  -45.5906  -55.0718 H         1 UNK         0.0546 
    103 H103       29.7724  -45.9386  -52.7482 H         1 UNK         0.0828 
    104 H104       31.2006  -45.9345  -53.7740 H         1 UNK         0.0828 
    105 H105       30.5635  -47.4523  -53.1495 H         1 UNK         0.0828 
    106 H106       31.0178  -47.6218  -55.6751 H         1 UNK         0.3005 
    107 H107       29.8279  -48.3299  -58.9247 H         1 UNK         0.1257 
    108 H108       30.8935  -46.0229  -59.2935 H         1 UNK         0.0775 
    109 H109       31.6553  -47.3991  -60.0190 H         1 UNK         0.0775 
    110 H110       34.0894  -44.3764  -58.4049 H         1 UNK         0.0840 
    111 H111       32.5316  -44.3383  -59.1793 H         1 UNK         0.0840 
    112 H112       32.3095  -48.9594  -57.7118 H         1 UNK         0.2987 
    113 H113       31.1911  -51.6561  -55.7002 H         1 UNK         0.0785 
    114 H114       31.1698  -52.6888  -57.9803 H         1 UNK         0.0798 
    115 H115       32.6675  -53.0362  -57.1344 H         1 UNK         0.0798 
    116 H116       32.6330  -51.8110  -58.4040 H         1 UNK         0.0798 
    117 H117       33.8213  -50.9321  -56.3543 H         1 UNK         0.3079 
    118 H118       35.1135  -50.0387  -54.7316 H         1 UNK         0.0794 
    119 H119       34.0659  -47.1913  -55.1960 H         1 UNK         0.0786 
    120 H120       34.9301  -48.1944  -56.3465 H         1 UNK         0.0786 
    121 H121       35.7638  -47.5894  -54.9252 H         1 UNK         0.0786 
    122 H122       34.4507  -48.0144  -52.7860 H         1 UNK         0.3032 
    123 H123       33.5675  -49.9882  -50.1495 H         1 UNK         0.1094 
    124 H124       36.5851  -49.5139  -50.4420 H         1 UNK         0.0794 
    125 H125       35.7201  -49.7414  -48.9206 H         1 UNK         0.0794 
    126 H126       35.8197  -51.0540  -50.0797 H         1 UNK         0.0794 
    127 H127       35.1300  -47.5487  -50.2234 H         1 UNK         0.3016 
@<TRIPOS>BOND
     1    1    2 1    
     2    1   67 1    
     3    1   68 1    
     4    1   69 1    
     5    2    3 2    
     6    2    4 am   BACKBONE|DICT|INTERRES
     7    4    5 1    
     8    4   70 1    
     9    5    6 1    
    10    5   65 1    
    11    5   71 1    
    12    6    7 1    
    13    6   72 1    
    14    6   73 1    
    15    7    8 1    
    16    8    9 1    
    17    8   74 1    
    18    8   75 1    
    19    9   10 ar   
    20    9   14 ar   
    21   10   11 ar   
    22   10   76 1    
    23   11   12 ar   
    24   11   48 1    
    25   12   13 ar   
    26   12   77 1    
    27   13   14 ar   
    28   13   15 1    
    29   14   78 1    
    30   15   16 1    
    31   15   79 1    
    32   15   80 1    
    33   16   17 1    
    34   17   18 1    
    35   17   81 1    
    36   17   82 1    
    37   18   19 1    
    38   18   22 1    
    39   18   83 1    
    40   19   20 am   BACKBONE|DICT|INTERRES
    41   19   21 2    
    42   20   84 1    
    43   20   85 1    
    44   22   23 am   BACKBONE|DICT|INTERRES
    45   22   86 1    
    46   23   24 2    
    47   23   25 1    
    48   25   26 1    
    49   25   27 1    
    50   25   87 1    
    51   26   88 1    
    52   26   89 1    
    53   26   90 1    
    54   27   28 am   BACKBONE|DICT|INTERRES
    55   27   91 1    
    56   28   29 2    
    57   28   30 1    
    58   30   31 1    
    59   30   32 1    
    60   30   92 1    
    61   31   93 1    
    62   31   94 1    
    63   31   95 1    
    64   32   33 am   BACKBONE|DICT|INTERRES
    65   32   96 1    
    66   33   34 2    
    67   33   35 1    
    68   35   36 1    
    69   35   37 1    
    70   35   97 1    
    71   36   98 1    
    72   36   99 1    
    73   36  100 1    
    74   37   38 am   BACKBONE|DICT|INTERRES
    75   37  101 1    
    76   38   39 2    
    77   38   40 1    
    78   40   41 1    
    79   40   42 1    
    80   40  102 1    
    81   41  103 1    
    82   41  104 1    
    83   41  105 1    
    84   42   43 am   BACKBONE|DICT|INTERRES
    85   42  106 1    
    86   43   44 2    
    87   43   45 1    
    88   45   46 1    
    89   45   49 1    
    90   45  107 1    
    91   46   47 1    
    92   46  108 1    
    93   46  109 1    
    94   47   48 1    
    95   48  110 1    
    96   48  111 1    
    97   49   50 am   BACKBONE|DICT|INTERRES
    98   49  112 1    
    99   50   51 2    
   100   50   52 1    
   101   52   53 1    
   102   52   54 1    
   103   52  113 1    
   104   53  114 1    
   105   53  115 1    
   106   53  116 1    
   107   54   55 am   BACKBONE|DICT|INTERRES
   108   54  117 1    
   109   55   56 2    
   110   55   57 1    
   111   57   58 1    
   112   57   59 1    
   113   57  118 1    
   114   58  119 1    
   115   58  120 1    
   116   58  121 1    
   117   59   60 am   BACKBONE|DICT|INTERRES
   118   59  122 1    
   119   60   61 2    
   120   60   62 1    
   121   62   63 1    
   122   62   64 1    
   123   62  123 1    
   124   63  124 1    
   125   63  125 1    
   126   63  126 1    
   127   64   65 am   BACKBONE|DICT|INTERRES
   128   64  127 1    
   129   65   66 2    
@<TRIPOS>SUBSTRUCTURE
     1 UNK         1 GROUP             0       ****    0 ROOT    
