@<TRIPOS>MOLECULE
3R134
127   129    1
SMALL
USER_CHARGES


@<TRIPOS>ATOM
      1 CA         32.3669  -42.6878  -52.1700 C.3       0 UNK        -0.1968 
      2 C          33.7901  -43.0921  -52.5245 C.2       0 UNK         0.4852 
      3 O          34.7368  -42.5704  -51.9344 O.2       0 UNK        -0.5359 
      4 N          33.9384  -44.0027  -53.4963 N.am      1 UNK        -0.4300 
      5 CA         35.2116  -44.4994  -54.0309 C.3       1 UNK         0.0863 
      6 C6         35.0283  -45.4280  -55.2622 C.3       11 UNK        -0.0953 
      7 S7         33.9337  -44.7490  -56.5541 S.3       11 UNK        -0.2369 
      8 C8         32.5311  -45.9123  -56.4954 C.3       11 UNK         0.0226 
      9 C9         31.5470  -45.5660  -55.3866 C.ar      11 UNK        -0.0699 
     10 C10        31.7114  -46.0801  -54.0974 C.ar      11 UNK        -0.0804 
     11 C11        30.8038  -45.7570  -53.0844 C.ar      11 UNK        -0.0871 
     12 C12        29.7029  -44.9482  -53.3795 C.ar      11 UNK        -0.1008 
     13 C13        29.5074  -44.4496  -54.6700 C.ar      11 UNK        -0.0735 
     14 C14        30.4464  -44.7507  -55.6636 C.ar      11 UNK        -0.0945 
     15 C15        28.2395  -43.6536  -54.9694 C.3       11 UNK         0.0169 
     16 S16        28.4250  -42.3876  -56.2691 S.3       11 UNK        -0.2669 
     17 C17        26.6952  -41.8201  -56.4367 C.3       11 UNK        -0.0850 
     18 CA         25.9344  -42.4453  -57.6397 C.3       10 UNK         0.0855 
     19 C          26.4534  -41.9703  -59.0284 C.2       10 UNK         0.5543 
     20 N          26.6706  -42.8487  -60.0035 N.am      10 UNK        -0.7343 
     21 O          26.6359  -40.7736  -59.2390 O.2       10 UNK        -0.5027 
     22 N          25.8133  -43.9035  -57.5373 N.am      10 UNK        -0.4495 
     23 C          24.9147  -44.5849  -56.8269 C.2       10 UNK         0.4903 
     24 O          24.0934  -44.0508  -56.0810 O.2       10 UNK        -0.4860 
     25 CA         24.9146  -46.1231  -56.9565 C.3       9 UNK         0.0227 
     26 CB         23.7593  -46.5897  -57.8625 C.3       9 UNK        -0.1964 
     27 N          26.1784  -46.7553  -57.3733 N.am      9 UNK        -0.4231 
     28 C          26.8581  -46.6285  -58.5249 C.2       9 UNK         0.5014 
     29 O          26.5691  -45.8237  -59.4129 O.2       9 UNK        -0.5270 
     30 CA         28.0802  -47.5411  -58.7153 C.3       8 UNK         0.0284 
     31 CB         29.3046  -46.9650  -57.9937 C.3       8 UNK        -0.1977 
     32 N          27.8494  -48.9108  -58.2566 N.am      8 UNK        -0.4342 
     33 C          27.0134  -49.7814  -58.8397 C.2       8 UNK         0.5039 
     34 O          26.3658  -49.5400  -59.8591 O.2       8 UNK        -0.5547 
     35 CA         26.8701  -51.1531  -58.1642 C.3       7 UNK         0.0281 
     36 CB         28.0489  -52.0726  -58.5248 C.3       7 UNK        -0.1963 
     37 N          26.7662  -51.0236  -56.7104 N.am      7 UNK        -0.4444 
     38 C          25.6495  -50.6588  -56.0650 C.2       7 UNK         0.5104 
     39 O          24.5690  -50.4595  -56.6204 O.2       7 UNK        -0.5100 
     40 CA         25.7508  -50.4856  -54.5391 C.3       6 UNK         0.0396 
     41 CB         25.3545  -51.7869  -53.8239 C.3       6 UNK        -0.1801 
     42 N          27.0815  -50.0691  -54.0873 N.am      6 UNK        -0.4747 
     43 C          27.6119  -48.8576  -54.3083 C.2       6 UNK         0.5012 
     44 O          27.0417  -47.9624  -54.9318 O.2       6 UNK        -0.5003 
     45 CA         29.0402  -48.6299  -53.7852 C.3       5 UNK         0.0782 
     46 C46        29.0334  -48.2648  -52.2774 C.3       11 UNK        -0.0868 
     47 S47        30.7196  -48.0936  -51.5875 S.3       11 UNK        -0.2515 
     48 C48        30.9929  -46.2978  -51.6747 C.3       11 UNK         0.0199 
     49 N          29.9384  -49.7519  -54.0658 N.am      5 UNK        -0.4607 
     50 C          30.2724  -50.2152  -55.2753 C.2       4 UNK         0.5031 
     51 O          29.7135  -49.8661  -56.3160 O.2       4 UNK        -0.5119 
     52 CA         31.4130  -51.2519  -55.3145 C.3       4 UNK         0.0263 
     53 CB         32.1506  -51.2675  -56.6706 C.3       4 UNK        -0.1967 
     54 N          32.3547  -51.1198  -54.1879 N.am      4 UNK        -0.4237 
     55 C          33.1890  -50.0973  -53.9366 C.2       3 UNK         0.4908 
     56 O          33.3348  -49.1169  -54.6712 O.2       3 UNK        -0.5102 
     57 CA         33.9924  -50.1892  -52.6308 C.3       3 UNK         0.0241 
     58 CB         34.9556  -51.3932  -52.6380 C.3       3 UNK        -0.1971 
     59 N          34.7553  -48.9567  -52.4450 N.am      3 UNK        -0.4139 
     60 C          35.1524  -48.4455  -51.2725 C.2       2 UNK         0.5016 
     61 O          34.8864  -48.9433  -50.1783 O.2       2 UNK        -0.5319 
     62 CA         36.0010  -47.1667  -51.3329 C.3       2 UNK         0.0286 
     63 CB         37.4735  -47.5726  -51.5749 C.3       2 UNK        -0.1963 
     64 N          35.4671  -46.2654  -52.3646 N.am      2 UNK        -0.4790 
     65 C          36.0563  -45.2153  -52.9573 C.2       1 UNK         0.5024 
     66 O          37.1904  -44.8073  -52.7062 O.2       1 UNK        -0.4888 
     67 H67        31.6845  -42.8563  -53.0028 H         1 UNK         0.0892 
     68 H68        32.0141  -43.2585  -51.3117 H         1 UNK         0.0892 
     69 H69        32.3250  -41.6288  -51.9167 H         1 UNK         0.0892 
     70 H70        33.1130  -44.3568  -53.9619 H         1 UNK         0.3107 
     71 H71        35.7755  -43.6230  -54.3578 H         1 UNK         0.0773 
     72 H72        35.9983  -45.6157  -55.7266 H         1 UNK         0.0680 
     73 H73        34.6544  -46.4095  -54.9675 H         1 UNK         0.0680 
     74 H74        32.8885  -46.9372  -56.3845 H         1 UNK         0.0650 
     75 H75        32.0244  -45.8793  -57.4605 H         1 UNK         0.0650 
     76 H76        32.5397  -46.7396  -53.8820 H         1 UNK         0.1397 
     77 H77        28.9821  -44.7223  -52.6053 H         1 UNK         0.1363 
     78 H78        30.3099  -44.3750  -56.6675 H         1 UNK         0.1355 
     79 H79        27.8846  -43.1614  -54.0625 H         1 UNK         0.0707 
     80 H80        27.4650  -44.3614  -55.2650 H         1 UNK         0.0707 
     81 H81        26.1537  -42.0290  -55.5130 H         1 UNK         0.1034 
     82 H82        26.7013  -40.7320  -56.5211 H         1 UNK         0.1034 
     83 H83        24.9178  -42.0491  -57.6041 H         1 UNK         0.0482 
     84 H84        26.5113  -43.8411  -59.8799 H         1 UNK         0.3460 
     85 H85        26.9964  -42.5088  -60.8943 H         1 UNK         0.3460 
     86 H86        26.4050  -44.4388  -58.1632 H         1 UNK         0.2989 
     87 H87        24.7208  -46.5090  -55.9545 H         1 UNK         0.0559 
     88 H88        22.8021  -46.2078  -57.5050 H         1 UNK         0.0848 
     89 H89        23.6873  -47.6775  -57.8813 H         1 UNK         0.0848 
     90 H90        23.8838  -46.2440  -58.8892 H         1 UNK         0.0848 
     91 H91        26.5725  -47.3737  -56.6671 H         1 UNK         0.3144 
     92 H92        28.3020  -47.5785  -59.7839 H         1 UNK         0.0727 
     93 H93        29.1551  -46.9359  -56.9137 H         1 UNK         0.0790 
     94 H94        29.5116  -45.9485  -58.3302 H         1 UNK         0.0790 
     95 H95        30.1961  -47.5615  -58.1887 H         1 UNK         0.0790 
     96 H96        28.4023  -49.2248  -57.4606 H         1 UNK         0.3215 
     97 H97        25.9553  -51.6173  -58.5402 H         1 UNK         0.0863 
     98 H98        27.9279  -53.0630  -58.0858 H         1 UNK         0.0808 
     99 H99        29.0025  -51.6689  -58.1845 H         1 UNK         0.0808 
    100 H100       28.1202  -52.2046  -59.6053 H         1 UNK         0.0808 
    101 H101       27.6184  -51.1235  -56.1778 H         1 UNK         0.3118 
    102 H102       25.0385  -49.7097  -54.2497 H         1 UNK         0.0546 
    103 H103       26.0394  -52.6030  -54.0574 H         1 UNK         0.0828 
    104 H104       24.3548  -52.1062  -54.1219 H         1 UNK         0.0828 
    105 H105       25.3409  -51.6574  -52.7416 H         1 UNK         0.0828 
    106 H106       27.6295  -50.7489  -53.5792 H         1 UNK         0.3005 
    107 H107       29.4308  -47.7777  -54.3438 H         1 UNK         0.1257 
    108 H108       28.4736  -47.3437  -52.1051 H         1 UNK         0.0775 
    109 H109       28.5242  -49.0380  -51.6990 H         1 UNK         0.0775 
    110 H110       30.3209  -45.8014  -50.9727 H         1 UNK         0.0840 
    111 H111       32.0055  -46.0770  -51.3344 H         1 UNK         0.0840 
    112 H112       30.4560  -50.0925  -53.2695 H         1 UNK         0.2987 
    113 H113       30.9331  -52.2243  -55.1951 H         1 UNK         0.0785 
    114 H114       31.4719  -51.5337  -57.4816 H         1 UNK         0.0798 
    115 H115       32.9604  -51.9968  -56.6747 H         1 UNK         0.0798 
    116 H116       32.5739  -50.2925  -56.9140 H         1 UNK         0.0798 
    117 H117       32.3279  -51.8777  -53.5190 H         1 UNK         0.3079 
    118 H118       33.2789  -50.2944  -51.8105 H         1 UNK         0.0794 
    119 H119       35.5278  -51.4484  -51.7116 H         1 UNK         0.0786 
    120 H120       35.6657  -51.3330  -53.4638 H         1 UNK         0.0786 
    121 H121       34.4187  -52.3372  -52.7356 H         1 UNK         0.0786 
    122 H122       34.9821  -48.4783  -53.3072 H         1 UNK         0.3032 
    123 H123       35.9222  -46.6636  -50.3672 H         1 UNK         0.1094 
    124 H124       38.1588  -46.7488  -51.3785 H         1 UNK         0.0794 
    125 H125       37.7733  -48.3834  -50.9089 H         1 UNK         0.0794 
    126 H126       37.6381  -47.9145  -52.5973 H         1 UNK         0.0794 
    127 H127       34.5067  -46.4498  -52.6164 H         1 UNK         0.3016 
@<TRIPOS>BOND
     1    1    2 1    
     2    1   67 1    
     3    1   68 1    
     4    1   69 1    
     5    2    3 2    
     6    2    4 am   BACKBONE|DICT|INTERRES
     7    4    5 1    
     8    4   70 1    
     9    5    6 1    
    10    5   65 1    
    11    5   71 1    
    12    6    7 1    
    13    6   72 1    
    14    6   73 1    
    15    7    8 1    
    16    8    9 1    
    17    8   74 1    
    18    8   75 1    
    19    9   10 ar   
    20    9   14 ar   
    21   10   11 ar   
    22   10   76 1    
    23   11   12 ar   
    24   11   48 1    
    25   12   13 ar   
    26   12   77 1    
    27   13   14 ar   
    28   13   15 1    
    29   14   78 1    
    30   15   16 1    
    31   15   79 1    
    32   15   80 1    
    33   16   17 1    
    34   17   18 1    
    35   17   81 1    
    36   17   82 1    
    37   18   19 1    
    38   18   22 1    
    39   18   83 1    
    40   19   20 am   BACKBONE|DICT|INTERRES
    41   19   21 2    
    42   20   84 1    
    43   20   85 1    
    44   22   23 am   BACKBONE|DICT|INTERRES
    45   22   86 1    
    46   23   24 2    
    47   23   25 1    
    48   25   26 1    
    49   25   27 1    
    50   25   87 1    
    51   26   88 1    
    52   26   89 1    
    53   26   90 1    
    54   27   28 am   BACKBONE|DICT|INTERRES
    55   27   91 1    
    56   28   29 2    
    57   28   30 1    
    58   30   31 1    
    59   30   32 1    
    60   30   92 1    
    61   31   93 1    
    62   31   94 1    
    63   31   95 1    
    64   32   33 am   BACKBONE|DICT|INTERRES
    65   32   96 1    
    66   33   34 2    
    67   33   35 1    
    68   35   36 1    
    69   35   37 1    
    70   35   97 1    
    71   36   98 1    
    72   36   99 1    
    73   36  100 1    
    74   37   38 am   BACKBONE|DICT|INTERRES
    75   37  101 1    
    76   38   39 2    
    77   38   40 1    
    78   40   41 1    
    79   40   42 1    
    80   40  102 1    
    81   41  103 1    
    82   41  104 1    
    83   41  105 1    
    84   42   43 am   BACKBONE|DICT|INTERRES
    85   42  106 1    
    86   43   44 2    
    87   43   45 1    
    88   45   46 1    
    89   45   49 1    
    90   45  107 1    
    91   46   47 1    
    92   46  108 1    
    93   46  109 1    
    94   47   48 1    
    95   48  110 1    
    96   48  111 1    
    97   49   50 am   BACKBONE|DICT|INTERRES
    98   49  112 1    
    99   50   51 2    
   100   50   52 1    
   101   52   53 1    
   102   52   54 1    
   103   52  113 1    
   104   53  114 1    
   105   53  115 1    
   106   53  116 1    
   107   54   55 am   BACKBONE|DICT|INTERRES
   108   54  117 1    
   109   55   56 2    
   110   55   57 1    
   111   57   58 1    
   112   57   59 1    
   113   57  118 1    
   114   58  119 1    
   115   58  120 1    
   116   58  121 1    
   117   59   60 am   BACKBONE|DICT|INTERRES
   118   59  122 1    
   119   60   61 2    
   120   60   62 1    
   121   62   63 1    
   122   62   64 1    
   123   62  123 1    
   124   63  124 1    
   125   63  125 1    
   126   63  126 1    
   127   64   65 am   BACKBONE|DICT|INTERRES
   128   64  127 1    
   129   65   66 2    
@<TRIPOS>SUBSTRUCTURE
     1 UNK         1 GROUP             0       ****    0 ROOT    
