@<TRIPOS>MOLECULE
3R134
127   129    1
SMALL
USER_CHARGES


@<TRIPOS>ATOM
      1 CA         32.6641  -45.9332  -50.7784 C.3       0 UNK        -0.1968 
      2 C          34.0401  -45.6948  -51.3839 C.2       0 UNK         0.4852 
      3 O          34.7845  -44.8438  -50.8941 O.2       0 UNK        -0.5359 
      4 N          34.3693  -46.4397  -52.4437 N.am      1 UNK        -0.4300 
      5 CA         35.6469  -46.4056  -53.1596 C.3       1 UNK         0.0863 
      6 C6         35.4575  -46.0956  -54.6748 C.3       11 UNK        -0.0953 
      7 S7         34.4968  -44.5775  -54.9844 S.3       11 UNK        -0.2369 
      8 C8         32.8836  -45.3112  -55.3984 C.3       11 UNK         0.0226 
      9 C9         31.7604  -44.3024  -55.2445 C.ar      11 UNK        -0.0699 
     10 C10        31.2236  -44.0501  -53.9802 C.ar      11 UNK        -0.0804 
     11 C11        30.1595  -43.1571  -53.8221 C.ar      11 UNK        -0.0871 
     12 C12        29.6485  -42.4972  -54.9440 C.ar      11 UNK        -0.1008 
     13 C13        30.1884  -42.7313  -56.2129 C.ar      11 UNK        -0.0735 
     14 C14        31.2435  -43.6365  -56.3581 C.ar      11 UNK        -0.0945 
     15 C15        29.6384  -42.0045  -57.4302 C.3       11 UNK         0.0169 
     16 S16        28.4668  -43.0421  -58.3548 S.3       11 UNK        -0.2669 
     17 C17        27.0586  -43.0994  -57.1915 C.3       11 UNK        -0.0850 
     18 CA         25.7503  -43.6347  -57.8263 C.3       10 UNK         0.0855 
     19 C          25.1222  -42.6318  -58.8386 C.2       10 UNK         0.5543 
     20 N          24.9465  -42.9860  -60.1061 N.am      10 UNK        -0.7343 
     21 O          24.7736  -41.5161  -58.4598 O.2       10 UNK        -0.5027 
     22 N          25.9329  -45.0040  -58.3259 N.am      10 UNK        -0.4495 
     23 C          24.9626  -45.9053  -58.5010 C.2       10 UNK         0.4903 
     24 O          23.7726  -45.6773  -58.2813 O.2       10 UNK        -0.4860 
     25 CA         25.3726  -47.3092  -58.9793 C.3       9 UNK         0.0227 
     26 CB         25.2530  -47.4386  -60.5106 C.3       9 UNK        -0.1964 
     27 N          26.6809  -47.7655  -58.4851 N.am      9 UNK        -0.4231 
     28 C          27.9149  -47.3600  -58.8262 C.2       9 UNK         0.5014 
     29 O          28.1289  -46.4869  -59.6672 O.2       9 UNK        -0.5270 
     30 CA         29.1196  -47.9954  -58.0957 C.3       8 UNK         0.0284 
     31 CB         29.9596  -46.9149  -57.3906 C.3       8 UNK        -0.1977 
     32 N          28.7486  -49.0141  -57.1103 N.am      8 UNK        -0.4342 
     33 C          28.3032  -50.2470  -57.3855 C.2       8 UNK         0.5039 
     34 O          28.2542  -50.7230  -58.5196 O.2       8 UNK        -0.5547 
     35 CA         27.7500  -51.0532  -56.1980 C.3       7 UNK         0.0281 
     36 CB         28.8640  -51.8517  -55.5033 C.3       7 UNK        -0.1963 
     37 N          27.0676  -50.1958  -55.2215 N.am      7 UNK        -0.4444 
     38 C          25.8924  -49.5864  -55.4378 C.2       7 UNK         0.5104 
     39 O          25.2363  -49.7209  -56.4697 O.2       7 UNK        -0.5100 
     40 CA         25.3785  -48.6421  -54.3375 C.3       6 UNK         0.0396 
     41 CB         24.5966  -49.4290  -53.2741 C.3       6 UNK        -0.1801 
     42 N          26.4542  -47.8845  -53.6940 N.am      6 UNK        -0.4747 
     43 C          27.1369  -46.8847  -54.2742 C.2       6 UNK         0.5012 
     44 O          26.8930  -46.4533  -55.3998 O.2       6 UNK        -0.5003 
     45 CA         28.3154  -46.2955  -53.4697 C.3       5 UNK         0.0782 
     46 C46        27.8243  -45.1175  -52.5893 C.3       11 UNK        -0.0868 
     47 S47        29.1387  -44.4089  -51.5385 S.3       11 UNK        -0.2515 
     48 C48        29.5749  -42.8855  -52.4408 C.3       11 UNK         0.0199 
     49 N          29.0357  -47.3157  -52.6918 N.am      5 UNK        -0.4607 
     50 C          29.6470  -48.3885  -53.2092 C.2       4 UNK         0.5031 
     51 O          29.6315  -48.6678  -54.4090 O.2       4 UNK        -0.5119 
     52 CA         30.3120  -49.3439  -52.2029 C.3       4 UNK         0.0263 
     53 CB         29.2478  -50.2388  -51.5448 C.3       4 UNK        -0.1967 
     54 N          31.3315  -50.2023  -52.8136 N.am      4 UNK        -0.4237 
     55 C          32.4828  -49.7704  -53.3412 C.2       3 UNK         0.4908 
     56 O          32.8340  -48.5857  -53.3530 O.2       3 UNK        -0.5102 
     57 CA         33.3957  -50.8442  -53.9533 C.3       3 UNK         0.0241 
     58 CB         32.8606  -51.3138  -55.3172 C.3       3 UNK        -0.1971 
     59 N          34.7189  -50.2603  -54.1374 N.am      3 UNK        -0.4139 
     60 C          35.8944  -50.7971  -53.7890 C.2       2 UNK         0.5016 
     61 O          36.0303  -51.9491  -53.3753 O.2       2 UNK        -0.5319 
     62 CA         37.1326  -49.8822  -53.9117 C.3       2 UNK         0.0286 
     63 CB         37.9404  -50.2334  -55.1717 C.3       2 UNK        -0.1963 
     64 N          36.7744  -48.4579  -53.9511 N.am      2 UNK        -0.4790 
     65 C          36.3322  -47.7630  -52.8914 C.2       1 UNK         0.5024 
     66 O          36.4001  -48.1923  -51.7372 O.2       1 UNK        -0.4888 
     67 H67        32.7577  -46.4535  -49.8257 H         1 UNK         0.0892 
     68 H68        32.1600  -44.9835  -50.6009 H         1 UNK         0.0892 
     69 H69        32.0322  -46.5310  -51.4350 H         1 UNK         0.0892 
     70 H70        33.7305  -47.1721  -52.7545 H         1 UNK         0.3107 
     71 H71        36.2987  -45.6389  -52.7363 H         1 UNK         0.0773 
     72 H72        34.9644  -46.9220  -55.1904 H         1 UNK         0.0680 
     73 H73        36.4285  -45.9661  -55.1563 H         1 UNK         0.0680 
     74 H74        32.6825  -46.1650  -54.7496 H         1 UNK         0.0650 
     75 H75        32.9163  -45.7013  -56.4168 H         1 UNK         0.0650 
     76 H76        31.6292  -44.5600  -53.1185 H         1 UNK         0.1397 
     77 H77        28.8317  -41.7973  -54.8319 H         1 UNK         0.1363 
     78 H78        31.6559  -43.8265  -57.3396 H         1 UNK         0.1355 
     79 H79        29.1542  -41.0707  -57.1399 H         1 UNK         0.0707 
     80 H80        30.4605  -41.7272  -58.0917 H         1 UNK         0.0707 
     81 H81        27.3390  -43.7394  -56.3528 H         1 UNK         0.1034 
     82 H82        26.8971  -42.1072  -56.7661 H         1 UNK         0.1034 
     83 H83        25.0246  -43.6998  -57.0133 H         1 UNK         0.0482 
     84 H84        24.5339  -42.3324  -60.7526 H         1 UNK         0.3460 
     85 H85        25.2360  -43.8980  -60.4201 H         1 UNK         0.3460 
     86 H86        26.8774  -45.2594  -58.5919 H         1 UNK         0.2989 
     87 H87        24.6502  -48.0005  -58.5431 H         1 UNK         0.0559 
     88 H88        25.9123  -46.7467  -61.0351 H         1 UNK         0.0848 
     89 H89        24.2353  -47.2225  -60.8384 H         1 UNK         0.0848 
     90 H90        25.4925  -48.4486  -60.8431 H         1 UNK         0.0848 
     91 H91        26.6188  -48.4583  -57.7502 H         1 UNK         0.3144 
     92 H92        29.7428  -48.4703  -58.8559 H         1 UNK         0.0727 
     93 H93        30.8180  -47.3479  -56.8765 H         1 UNK         0.0790 
     94 H94        29.3724  -46.3642  -56.6551 H         1 UNK         0.0790 
     95 H95        30.3431  -46.1861  -58.1058 H         1 UNK         0.0790 
     96 H96        28.8446  -48.7525  -56.1311 H         1 UNK         0.3215 
     97 H97        27.0204  -51.7638  -56.5933 H         1 UNK         0.0863 
     98 H98        28.4661  -52.4752  -54.7026 H         1 UNK         0.0808 
     99 H99        29.6224  -51.1978  -55.0753 H         1 UNK         0.0808 
    100 H100       29.3664  -52.5134  -56.2101 H         1 UNK         0.0808 
    101 H101       27.5707  -49.9824  -54.3734 H         1 UNK         0.3118 
    102 H102       24.6934  -47.9306  -54.8042 H         1 UNK         0.0546 
    103 H103       25.2288  -50.1491  -52.7531 H         1 UNK         0.0828 
    104 H104       23.7754  -49.9857  -53.7279 H         1 UNK         0.0828 
    105 H105       24.1604  -48.7635  -52.5290 H         1 UNK         0.0828 
    106 H106       26.7166  -48.1623  -52.7593 H         1 UNK         0.3005 
    107 H107       29.0218  -45.8991  -54.2022 H         1 UNK         0.1257 
    108 H108       27.0208  -45.4448  -51.9266 H         1 UNK         0.0775 
    109 H109       27.3979  -44.3284  -53.2122 H         1 UNK         0.0775 
    110 H110       28.6906  -42.2497  -52.5072 H         1 UNK         0.0840 
    111 H111       30.3085  -42.3299  -51.8552 H         1 UNK         0.0840 
    112 H112       29.0848  -47.1500  -51.6968 H         1 UNK         0.2987 
    113 H113       30.7976  -48.7447  -51.4300 H         1 UNK         0.0785 
    114 H114       29.6904  -50.8903  -50.7909 H         1 UNK         0.0798 
    115 H115       28.7409  -50.8705  -52.2755 H         1 UNK         0.0798 
    116 H116       28.4843  -49.6443  -51.0413 H         1 UNK         0.0798 
    117 H117       31.1164  -51.1870  -52.8646 H         1 UNK         0.3079 
    118 H118       33.4501  -51.6898  -53.2642 H         1 UNK         0.0794 
    119 H119       31.9168  -51.8468  -55.2066 H         1 UNK         0.0786 
    120 H120       33.5582  -51.9973  -55.8016 H         1 UNK         0.0786 
    121 H121       32.6882  -50.4761  -55.9948 H         1 UNK         0.0786 
    122 H122       34.7016  -49.2845  -54.3970 H         1 UNK         0.3032 
    123 H123       37.7612  -50.0632  -53.0365 H         1 UNK         0.1094 
    124 H124       38.8480  -49.6334  -55.2415 H         1 UNK         0.0794 
    125 H125       38.2469  -51.2804  -55.1583 H         1 UNK         0.0794 
    126 H126       37.3608  -50.0757  -56.0822 H         1 UNK         0.0794 
    127 H127       36.7321  -48.0297  -54.8652 H         1 UNK         0.3016 
@<TRIPOS>BOND
     1    1    2 1    
     2    1   67 1    
     3    1   68 1    
     4    1   69 1    
     5    2    3 2    
     6    2    4 am   BACKBONE|DICT|INTERRES
     7    4    5 1    
     8    4   70 1    
     9    5    6 1    
    10    5   65 1    
    11    5   71 1    
    12    6    7 1    
    13    6   72 1    
    14    6   73 1    
    15    7    8 1    
    16    8    9 1    
    17    8   74 1    
    18    8   75 1    
    19    9   10 ar   
    20    9   14 ar   
    21   10   11 ar   
    22   10   76 1    
    23   11   12 ar   
    24   11   48 1    
    25   12   13 ar   
    26   12   77 1    
    27   13   14 ar   
    28   13   15 1    
    29   14   78 1    
    30   15   16 1    
    31   15   79 1    
    32   15   80 1    
    33   16   17 1    
    34   17   18 1    
    35   17   81 1    
    36   17   82 1    
    37   18   19 1    
    38   18   22 1    
    39   18   83 1    
    40   19   20 am   BACKBONE|DICT|INTERRES
    41   19   21 2    
    42   20   84 1    
    43   20   85 1    
    44   22   23 am   BACKBONE|DICT|INTERRES
    45   22   86 1    
    46   23   24 2    
    47   23   25 1    
    48   25   26 1    
    49   25   27 1    
    50   25   87 1    
    51   26   88 1    
    52   26   89 1    
    53   26   90 1    
    54   27   28 am   BACKBONE|DICT|INTERRES
    55   27   91 1    
    56   28   29 2    
    57   28   30 1    
    58   30   31 1    
    59   30   32 1    
    60   30   92 1    
    61   31   93 1    
    62   31   94 1    
    63   31   95 1    
    64   32   33 am   BACKBONE|DICT|INTERRES
    65   32   96 1    
    66   33   34 2    
    67   33   35 1    
    68   35   36 1    
    69   35   37 1    
    70   35   97 1    
    71   36   98 1    
    72   36   99 1    
    73   36  100 1    
    74   37   38 am   BACKBONE|DICT|INTERRES
    75   37  101 1    
    76   38   39 2    
    77   38   40 1    
    78   40   41 1    
    79   40   42 1    
    80   40  102 1    
    81   41  103 1    
    82   41  104 1    
    83   41  105 1    
    84   42   43 am   BACKBONE|DICT|INTERRES
    85   42  106 1    
    86   43   44 2    
    87   43   45 1    
    88   45   46 1    
    89   45   49 1    
    90   45  107 1    
    91   46   47 1    
    92   46  108 1    
    93   46  109 1    
    94   47   48 1    
    95   48  110 1    
    96   48  111 1    
    97   49   50 am   BACKBONE|DICT|INTERRES
    98   49  112 1    
    99   50   51 2    
   100   50   52 1    
   101   52   53 1    
   102   52   54 1    
   103   52  113 1    
   104   53  114 1    
   105   53  115 1    
   106   53  116 1    
   107   54   55 am   BACKBONE|DICT|INTERRES
   108   54  117 1    
   109   55   56 2    
   110   55   57 1    
   111   57   58 1    
   112   57   59 1    
   113   57  118 1    
   114   58  119 1    
   115   58  120 1    
   116   58  121 1    
   117   59   60 am   BACKBONE|DICT|INTERRES
   118   59  122 1    
   119   60   61 2    
   120   60   62 1    
   121   62   63 1    
   122   62   64 1    
   123   62  123 1    
   124   63  124 1    
   125   63  125 1    
   126   63  126 1    
   127   64   65 am   BACKBONE|DICT|INTERRES
   128   64  127 1    
   129   65   66 2    
@<TRIPOS>SUBSTRUCTURE
     1 UNK         1 GROUP             0       ****    0 ROOT    
