@<TRIPOS>MOLECULE
3R134
127   129    1
SMALL
USER_CHARGES


@<TRIPOS>ATOM
      1 CA         30.6661  -44.0872  -50.0858 C.3       0 UNK        -0.1968 
      2 C          32.0043  -44.7901  -50.2517 C.2       0 UNK         0.4852 
      3 O          32.5720  -45.2725  -49.2706 O.2       0 UNK        -0.5359 
      4 N          32.5140  -44.8415  -51.4891 N.am      1 UNK        -0.4300 
      5 CA         33.7619  -45.5104  -51.8630 C.3       1 UNK         0.0863 
      6 C6         34.2759  -45.0680  -53.2608 C.3       11 UNK        -0.0953 
      7 S7         34.3585  -43.2541  -53.4595 S.3       11 UNK        -0.2369 
      8 C8         33.7348  -43.0115  -55.1638 C.3       11 UNK         0.0226 
      9 C9         32.3474  -43.5968  -55.4319 C.ar      11 UNK        -0.0699 
     10 C10        31.3169  -43.4921  -54.4903 C.ar      11 UNK        -0.0804 
     11 C11        30.0653  -44.0683  -54.7322 C.ar      11 UNK        -0.0871 
     12 C12        29.8279  -44.6964  -55.9580 C.ar      11 UNK        -0.1008 
     13 C13        30.8408  -44.7989  -56.9125 C.ar      11 UNK        -0.0735 
     14 C14        32.0977  -44.2492  -56.6446 C.ar      11 UNK        -0.0945 
     15 C15        30.5749  -45.5338  -58.2154 C.3       11 UNK         0.0169 
     16 S16        29.8929  -44.4152  -59.4785 S.3       11 UNK        -0.2669 
     17 C17        28.5376  -45.4215  -60.1800 C.3       11 UNK        -0.0850 
     18 CA         27.1361  -44.8145  -59.9054 C.3       10 UNK         0.0855 
     19 C          26.0142  -45.6242  -60.6198 C.2       10 UNK         0.5543 
     20 N          24.9486  -46.0450  -59.9475 N.am      10 UNK        -0.7343 
     21 O          26.1059  -45.8673  -61.8205 O.2       10 UNK        -0.5027 
     22 N          26.8925  -44.6212  -58.4675 N.am      10 UNK        -0.4495 
     23 C          26.2381  -43.5782  -57.9397 C.2       10 UNK         0.4903 
     24 O          25.8327  -42.6223  -58.6036 O.2       10 UNK        -0.4860 
     25 CA         25.9895  -43.6021  -56.4149 C.3       9 UNK         0.0227 
     26 CB         24.7964  -42.7188  -55.9932 C.3       9 UNK        -0.1964 
     27 N          25.8468  -44.9513  -55.8533 N.am      9 UNK        -0.4231 
     28 C          24.9726  -45.8955  -56.2300 C.2       9 UNK         0.5014 
     29 O          24.1212  -45.7517  -57.1103 O.2       9 UNK        -0.5270 
     30 CA         25.1243  -47.2602  -55.5415 C.3       8 UNK         0.0284 
     31 CB         23.7927  -47.7222  -54.9269 C.3       8 UNK        -0.1977 
     32 N          25.6255  -48.2978  -56.4478 N.am      8 UNK        -0.4342 
     33 C          26.7276  -48.2226  -57.2069 C.2       8 UNK         0.5039 
     34 O          27.4510  -47.2269  -57.2853 O.2       8 UNK        -0.5547 
     35 CA         27.1454  -49.5228  -57.9098 C.3       7 UNK         0.0281 
     36 CB         27.9616  -49.2618  -59.1877 C.3       7 UNK        -0.1963 
     37 N          27.9655  -50.2666  -56.9590 N.am      7 UNK        -0.4444 
     38 C          27.4790  -51.1004  -56.0260 C.2       7 UNK         0.5104 
     39 O          26.3339  -51.5527  -56.0419 O.2       7 UNK        -0.5100 
     40 CA         28.4002  -51.4081  -54.8270 C.3       6 UNK         0.0396 
     41 CB         29.2971  -52.6196  -55.1236 C.3       6 UNK        -0.1801 
     42 N          29.2347  -50.2519  -54.4880 N.am      6 UNK        -0.4747 
     43 C          28.7577  -49.0649  -54.0805 C.2       6 UNK         0.5012 
     44 O          27.6257  -48.9279  -53.6170 O.2       6 UNK        -0.5003 
     45 CA         29.6564  -47.8224  -54.2982 C.3       5 UNK         0.0782 
     46 C46        29.5773  -46.7917  -53.1358 C.3       11 UNK        -0.0868 
     47 S47        28.1762  -45.6295  -53.3469 S.3       11 UNK        -0.2515 
     48 C48        28.9845  -44.0184  -53.6576 C.3       11 UNK         0.0199 
     49 N          31.0424  -48.1428  -54.6763 N.am      5 UNK        -0.4607 
     50 C          31.4328  -48.5905  -55.8788 C.2       4 UNK         0.5031 
     51 O          30.6395  -48.8628  -56.7800 O.2       4 UNK        -0.5119 
     52 CA         32.9303  -48.8297  -56.1188 C.3       4 UNK         0.0263 
     53 CB         33.6045  -47.5587  -56.6574 C.3       4 UNK        -0.1967 
     54 N          33.6520  -49.2890  -54.9249 N.am      4 UNK        -0.4237 
     55 C          34.4401  -50.3762  -54.9005 C.2       3 UNK         0.4908 
     56 O          34.5289  -51.1712  -55.8377 O.2       3 UNK        -0.5102 
     57 CA         35.3230  -50.6234  -53.6609 C.3       3 UNK         0.0241 
     58 CB         36.7989  -50.3491  -53.9986 C.3       3 UNK        -0.1971 
     59 N          34.9567  -49.8202  -52.4949 N.am      3 UNK        -0.4139 
     60 C          33.9876  -50.1346  -51.6269 C.2       2 UNK         0.5016 
     61 O          33.3070  -51.1582  -51.7000 O.2       2 UNK        -0.5319 
     62 CA         33.7182  -49.1287  -50.4902 C.3       2 UNK         0.0286 
     63 CB         34.4758  -49.5454  -49.2190 C.3       2 UNK        -0.1963 
     64 N          34.0256  -47.7212  -50.7939 N.am      2 UNK        -0.4790 
     65 C          33.5244  -47.0304  -51.8268 C.2       1 UNK         0.5024 
     66 O          32.8637  -47.5473  -52.7276 O.2       1 UNK        -0.4888 
     67 H67        30.5010  -43.8181  -49.0426 H         1 UNK         0.0892 
     68 H68        30.6296  -43.1713  -50.6750 H         1 UNK         0.0892 
     69 H69        29.8530  -44.7411  -50.4008 H         1 UNK         0.0892 
     70 H70        32.0016  -44.4411  -52.2590 H         1 UNK         0.3107 
     71 H71        34.5253  -45.2515  -51.1261 H         1 UNK         0.0773 
     72 H72        33.6385  -45.4720  -54.0465 H         1 UNK         0.0680 
     73 H73        35.2717  -45.4753  -53.4435 H         1 UNK         0.0680 
     74 H74        33.7061  -41.9419  -55.3742 H         1 UNK         0.0650 
     75 H75        34.4651  -43.4412  -55.8513 H         1 UNK         0.0650 
     76 H76        31.4974  -42.9693  -53.5619 H         1 UNK         0.1397 
     77 H77        28.8611  -45.1334  -56.1639 H         1 UNK         0.1363 
     78 H78        32.8830  -44.3340  -57.3832 H         1 UNK         0.1355 
     79 H79        31.4929  -45.9758  -58.6020 H         1 UNK         0.0707 
     80 H80        29.8994  -46.3671  -58.0191 H         1 UNK         0.0707 
     81 H81        28.5864  -46.4436  -59.8057 H         1 UNK         0.1034 
     82 H82        28.7132  -45.4936  -61.2550 H         1 UNK         0.1034 
     83 H83        27.1272  -43.8362  -60.3891 H         1 UNK         0.0482 
     84 H84        24.8288  -45.8359  -58.9616 H         1 UNK         0.3460 
     85 H85        24.2336  -46.5580  -60.4371 H         1 UNK         0.3460 
     86 H86        27.1473  -45.4087  -57.8764 H         1 UNK         0.2989 
     87 H87        26.8876  -43.1791  -55.9644 H         1 UNK         0.0559 
     88 H88        23.8661  -43.0519  -56.4548 H         1 UNK         0.0848 
     89 H89        24.9519  -41.6800  -56.2871 H         1 UNK         0.0848 
     90 H90        24.6571  -42.7289  -54.9123 H         1 UNK         0.0848 
     91 H91        26.5252  -45.2009  -55.1447 H         1 UNK         0.3144 
     92 H92        25.8491  -47.1648  -54.7311 H         1 UNK         0.0727 
     93 H93        23.0345  -47.8987  -55.6911 H         1 UNK         0.0790 
     94 H94        23.3974  -46.9697  -54.2431 H         1 UNK         0.0790 
     95 H95        23.9173  -48.6428  -54.3562 H         1 UNK         0.0790 
     96 H96        25.1280  -49.1770  -56.4293 H         1 UNK         0.3215 
     97 H97        26.2530  -50.0912  -58.1811 H         1 UNK         0.0863 
     98 H98        28.8885  -48.7272  -58.9760 H         1 UNK         0.0808 
     99 H99        27.3893  -48.6638  -59.8979 H         1 UNK         0.0808 
    100 H100       28.2239  -50.1955  -59.6848 H         1 UNK         0.0808 
    101 H101       28.9095  -49.9093  -56.8403 H         1 UNK         0.3118 
    102 H102       27.7717  -51.6425  -53.9654 H         1 UNK         0.0546 
    103 H103       29.9180  -52.8735  -54.2643 H         1 UNK         0.0828 
    104 H104       29.9567  -52.4385  -55.9733 H         1 UNK         0.0828 
    105 H105       28.6962  -53.4991  -55.3592 H         1 UNK         0.0828 
    106 H106       30.1843  -50.2690  -54.8308 H         1 UNK         0.3005 
    107 H107       29.2273  -47.3446  -55.1816 H         1 UNK         0.1257 
    108 H108       30.4968  -46.2097  -53.0820 H         1 UNK         0.0775 
    109 H109       29.4938  -47.2875  -52.1670 H         1 UNK         0.0775 
    110 H110       28.2261  -43.2924  -53.9512 H         1 UNK         0.0840 
    111 H111       29.3960  -43.6569  -52.7158 H         1 UNK         0.0840 
    112 H112       31.7431  -47.9500  -53.9625 H         1 UNK         0.2987 
    113 H113       32.9885  -49.5849  -56.9053 H         1 UNK         0.0785 
    114 H114       33.5213  -46.7293  -55.9566 H         1 UNK         0.0798 
    115 H115       34.6631  -47.7247  -56.8569 H         1 UNK         0.0798 
    116 H116       33.1475  -47.2446  -57.5951 H         1 UNK         0.0798 
    117 H117       33.5793  -48.7115  -54.0934 H         1 UNK         0.3079 
    118 H118       35.2279  -51.6808  -53.4037 H         1 UNK         0.0794 
    119 H119       37.4492  -50.5828  -53.1553 H         1 UNK         0.0786 
    120 H120       36.9640  -49.3062  -54.2725 H         1 UNK         0.0786 
    121 H121       37.1297  -50.9623  -54.8381 H         1 UNK         0.0786 
    122 H122       35.4654  -48.9602  -52.3493 H         1 UNK         0.3032 
    123 H123       32.6477  -49.1806  -50.2790 H         1 UNK         0.1094 
    124 H124       34.2506  -50.5785  -48.9494 H         1 UNK         0.0794 
    125 H125       35.5560  -49.4709  -49.3506 H         1 UNK         0.0794 
    126 H126       34.1962  -48.9241  -48.3679 H         1 UNK         0.0794 
    127 H127       34.5305  -47.2115  -50.0819 H         1 UNK         0.3016 
@<TRIPOS>BOND
     1    1    2 1    
     2    1   67 1    
     3    1   68 1    
     4    1   69 1    
     5    2    3 2    
     6    2    4 am   BACKBONE|DICT|INTERRES
     7    4    5 1    
     8    4   70 1    
     9    5    6 1    
    10    5   65 1    
    11    5   71 1    
    12    6    7 1    
    13    6   72 1    
    14    6   73 1    
    15    7    8 1    
    16    8    9 1    
    17    8   74 1    
    18    8   75 1    
    19    9   10 ar   
    20    9   14 ar   
    21   10   11 ar   
    22   10   76 1    
    23   11   12 ar   
    24   11   48 1    
    25   12   13 ar   
    26   12   77 1    
    27   13   14 ar   
    28   13   15 1    
    29   14   78 1    
    30   15   16 1    
    31   15   79 1    
    32   15   80 1    
    33   16   17 1    
    34   17   18 1    
    35   17   81 1    
    36   17   82 1    
    37   18   19 1    
    38   18   22 1    
    39   18   83 1    
    40   19   20 am   BACKBONE|DICT|INTERRES
    41   19   21 2    
    42   20   84 1    
    43   20   85 1    
    44   22   23 am   BACKBONE|DICT|INTERRES
    45   22   86 1    
    46   23   24 2    
    47   23   25 1    
    48   25   26 1    
    49   25   27 1    
    50   25   87 1    
    51   26   88 1    
    52   26   89 1    
    53   26   90 1    
    54   27   28 am   BACKBONE|DICT|INTERRES
    55   27   91 1    
    56   28   29 2    
    57   28   30 1    
    58   30   31 1    
    59   30   32 1    
    60   30   92 1    
    61   31   93 1    
    62   31   94 1    
    63   31   95 1    
    64   32   33 am   BACKBONE|DICT|INTERRES
    65   32   96 1    
    66   33   34 2    
    67   33   35 1    
    68   35   36 1    
    69   35   37 1    
    70   35   97 1    
    71   36   98 1    
    72   36   99 1    
    73   36  100 1    
    74   37   38 am   BACKBONE|DICT|INTERRES
    75   37  101 1    
    76   38   39 2    
    77   38   40 1    
    78   40   41 1    
    79   40   42 1    
    80   40  102 1    
    81   41  103 1    
    82   41  104 1    
    83   41  105 1    
    84   42   43 am   BACKBONE|DICT|INTERRES
    85   42  106 1    
    86   43   44 2    
    87   43   45 1    
    88   45   46 1    
    89   45   49 1    
    90   45  107 1    
    91   46   47 1    
    92   46  108 1    
    93   46  109 1    
    94   47   48 1    
    95   48  110 1    
    96   48  111 1    
    97   49   50 am   BACKBONE|DICT|INTERRES
    98   49  112 1    
    99   50   51 2    
   100   50   52 1    
   101   52   53 1    
   102   52   54 1    
   103   52  113 1    
   104   53  114 1    
   105   53  115 1    
   106   53  116 1    
   107   54   55 am   BACKBONE|DICT|INTERRES
   108   54  117 1    
   109   55   56 2    
   110   55   57 1    
   111   57   58 1    
   112   57   59 1    
   113   57  118 1    
   114   58  119 1    
   115   58  120 1    
   116   58  121 1    
   117   59   60 am   BACKBONE|DICT|INTERRES
   118   59  122 1    
   119   60   61 2    
   120   60   62 1    
   121   62   63 1    
   122   62   64 1    
   123   62  123 1    
   124   63  124 1    
   125   63  125 1    
   126   63  126 1    
   127   64   65 am   BACKBONE|DICT|INTERRES
   128   64  127 1    
   129   65   66 2    
@<TRIPOS>SUBSTRUCTURE
     1 UNK         1 GROUP             0       ****    0 ROOT    
