@<TRIPOS>MOLECULE
3R134
127   129    1
SMALL
USER_CHARGES


@<TRIPOS>ATOM
      1 CA         39.3342  -43.4470  -50.1315 C.3       0 UNK        -0.1968 
      2 C          38.3252  -44.4370  -50.6940 C.2       0 UNK         0.4852 
      3 O          38.5073  -45.6476  -50.5487 O.2       0 UNK        -0.5359 
      4 N          37.2537  -43.9381  -51.3256 N.am      1 UNK        -0.4300 
      5 CA         36.1729  -44.7245  -51.9321 C.3       1 UNK         0.0863 
      6 C6         35.4852  -43.9290  -53.0719 C.3       11 UNK        -0.0953 
      7 S7         34.4918  -44.9777  -54.1913 S.3       11 UNK        -0.2369 
      8 C8         32.9023  -44.0850  -54.1303 C.3       11 UNK         0.0226 
      9 C9         31.8108  -44.6605  -55.0299 C.ar      11 UNK        -0.0699 
     10 C10        32.0979  -45.1944  -56.2928 C.ar      11 UNK        -0.0804 
     11 C11        31.0713  -45.6599  -57.1204 C.ar      11 UNK        -0.0871 
     12 C12        29.7465  -45.5739  -56.6868 C.ar      11 UNK        -0.1008 
     13 C13        29.4448  -45.0476  -55.4286 C.ar      11 UNK        -0.0735 
     14 C14        30.4795  -44.5956  -54.6056 C.ar      11 UNK        -0.0945 
     15 C15        27.9964  -44.9337  -54.9824 C.3       11 UNK         0.0169 
     16 S16        27.2145  -46.5686  -54.8375 S.3       11 UNK        -0.2669 
     17 C17        25.4466  -46.1177  -54.8603 C.3       11 UNK        -0.0850 
     18 CA         24.8012  -46.4015  -56.2465 C.3       10 UNK         0.0855 
     19 C          23.2411  -46.3884  -56.2253 C.2       10 UNK         0.5543 
     20 N          22.5678  -46.0541  -57.3211 N.am      10 UNK        -0.7343 
     21 O          22.6267  -46.7206  -55.2147 O.2       10 UNK        -0.5027 
     22 N          25.4031  -45.6138  -57.3360 N.am      10 UNK        -0.4495 
     23 C          25.2807  -44.2913  -57.5264 C.2       10 UNK         0.4903 
     24 O          24.7448  -43.5257  -56.7251 O.2       10 UNK        -0.4860 
     25 CA         25.8248  -43.7206  -58.8519 C.3       9 UNK         0.0227 
     26 CB         27.2137  -43.0973  -58.6372 C.3       9 UNK        -0.1964 
     27 N          25.9008  -44.7092  -59.9335 N.am      9 UNK        -0.4231 
     28 C          24.8638  -45.3933  -60.4386 C.2       9 UNK         0.5014 
     29 O          23.6902  -45.2030  -60.1137 O.2       9 UNK        -0.5270 
     30 CA         25.1926  -46.5455  -61.4058 C.3       8 UNK         0.0284 
     31 CB         26.5376  -46.3769  -62.1505 C.3       8 UNK        -0.1977 
     32 N          25.1346  -47.8411  -60.7139 N.am      8 UNK        -0.4342 
     33 C          25.8519  -48.2111  -59.6432 C.2       8 UNK         0.5039 
     34 O          26.7139  -47.5043  -59.1068 O.2       8 UNK        -0.5547 
     35 CA         25.5512  -49.5947  -59.0564 C.3       7 UNK         0.0281 
     36 CB         26.1141  -50.7159  -59.9494 C.3       7 UNK        -0.1963 
     37 N          26.1795  -49.6444  -57.7436 N.am      7 UNK        -0.4444 
     38 C          25.8879  -50.4611  -56.7280 C.2       7 UNK         0.5104 
     39 O          24.9988  -51.3129  -56.7698 O.2       7 UNK        -0.5100 
     40 CA         26.7355  -50.2787  -55.4493 C.3       6 UNK         0.0396 
     41 CB         26.7919  -51.5538  -54.5825 C.3       6 UNK        -0.1801 
     42 N          28.0888  -49.7638  -55.7152 N.am      6 UNK        -0.4747 
     43 C          29.0444  -50.3496  -56.4570 C.2       6 UNK         0.5012 
     44 O          28.9205  -51.4510  -56.9940 O.2       6 UNK        -0.5003 
     45 CA         30.3570  -49.5663  -56.6608 C.3       5 UNK         0.0782 
     46 C46        30.3156  -48.8101  -58.0123 C.3       11 UNK        -0.0868 
     47 S47        31.8931  -47.9789  -58.4034 S.3       11 UNK        -0.2515 
     48 C48        31.3927  -46.2304  -58.4934 C.3       11 UNK         0.0199 
     49 N          30.7004  -48.6909  -55.5312 N.am      5 UNK        -0.4607 
     50 C          31.0456  -49.1345  -54.3159 C.2       4 UNK         0.5031 
     51 O          30.9969  -50.3208  -53.9806 O.2       4 UNK        -0.5119 
     52 CA         31.5170  -48.0757  -53.3029 C.3       4 UNK         0.0263 
     53 CB         30.3234  -47.4911  -52.5327 C.3       4 UNK        -0.1967 
     54 N          32.4705  -48.6283  -52.3382 N.am      4 UNK        -0.4237 
     55 C          33.6906  -49.0908  -52.6383 C.2       3 UNK         0.4908 
     56 O          34.2016  -49.0133  -53.7572 O.2       3 UNK        -0.5102 
     57 CA         34.4809  -49.7077  -51.4719 C.3       3 UNK         0.0241 
     58 CB         35.6729  -50.5590  -51.9488 C.3       3 UNK        -0.1971 
     59 N          34.9756  -48.6456  -50.6009 N.am      3 UNK        -0.4139 
     60 C          34.2763  -48.0516  -49.6243 C.2       2 UNK         0.5016 
     61 O          33.1475  -48.4018  -49.2775 O.2       2 UNK        -0.5319 
     62 CA         34.9409  -46.8359  -48.9565 C.3       2 UNK         0.0286 
     63 CB         35.8475  -47.2758  -47.7961 C.3       2 UNK        -0.1963 
     64 N          35.7241  -46.0620  -49.9239 N.am      2 UNK        -0.4790 
     65 C          35.1954  -45.2618  -50.8591 C.2       1 UNK         0.5024 
     66 O          34.0030  -44.9534  -50.8824 O.2       1 UNK        -0.4888 
     67 H67        40.3151  -43.6204  -50.5732 H         1 UNK         0.0892 
     68 H68        39.0493  -42.4146  -50.3332 H         1 UNK         0.0892 
     69 H69        39.4193  -43.5711  -49.0523 H         1 UNK         0.0892 
     70 H70        37.1425  -42.9354  -51.3815 H         1 UNK         0.3107 
     71 H71        36.6311  -45.6026  -52.3934 H         1 UNK         0.0773 
     72 H72        34.8796  -43.1166  -52.6657 H         1 UNK         0.0680 
     73 H73        36.2427  -43.4487  -53.6934 H         1 UNK         0.0680 
     74 H74        32.5617  -44.0721  -53.0936 H         1 UNK         0.0650 
     75 H75        33.0692  -43.0465  -54.4188 H         1 UNK         0.0650 
     76 H76        33.1204  -45.2404  -56.6414 H         1 UNK         0.1397 
     77 H77        28.9427  -45.9143  -57.3261 H         1 UNK         0.1363 
     78 H78        30.2459  -44.1728  -53.6379 H         1 UNK         0.1355 
     79 H79        27.4598  -44.3223  -55.7062 H         1 UNK         0.0707 
     80 H80        27.9180  -44.4180  -54.0241 H         1 UNK         0.0707 
     81 H81        25.3116  -45.0749  -54.5697 H         1 UNK         0.1034 
     82 H82        24.9617  -46.7092  -54.0819 H         1 UNK         0.1034 
     83 H83        25.0364  -47.4362  -56.4914 H         1 UNK         0.0482 
     84 H84        23.0502  -45.7742  -58.1666 H         1 UNK         0.3460 
     85 H85        21.5606  -46.0604  -57.2988 H         1 UNK         0.3460 
     86 H86        25.8907  -46.1583  -58.0428 H         1 UNK         0.2989 
     87 H87        25.1401  -42.9332  -59.1729 H         1 UNK         0.0559 
     88 H88        27.5700  -42.5991  -59.5389 H         1 UNK         0.0848 
     89 H89        27.9536  -43.8455  -58.3519 H         1 UNK         0.0848 
     90 H90        27.1878  -42.3480  -57.8446 H         1 UNK         0.0848 
     91 H91        26.8259  -44.9899  -60.2256 H         1 UNK         0.3144 
     92 H92        24.4003  -46.5519  -62.1562 H         1 UNK         0.0727 
     93 H93        26.6553  -47.1459  -62.9141 H         1 UNK         0.0790 
     94 H94        27.3999  -46.4461  -61.4867 H         1 UNK         0.0790 
     95 H95        26.5867  -45.4132  -62.6594 H         1 UNK         0.0790 
     96 H96        24.4313  -48.4807  -61.0584 H         1 UNK         0.3215 
     97 H97        24.4705  -49.7048  -58.9448 H         1 UNK         0.0863 
     98 H98        25.9137  -51.7000  -59.5252 H         1 UNK         0.0808 
     99 H99        27.1936  -50.6226  -60.0763 H         1 UNK         0.0808 
    100 H100       25.6639  -50.6962  -60.9424 H         1 UNK         0.0808 
    101 H101       26.8862  -48.9291  -57.6170 H         1 UNK         0.3118 
    102 H102       26.2297  -49.5098  -54.8639 H         1 UNK         0.0546 
    103 H103       27.2169  -52.3967  -55.1279 H         1 UNK         0.0828 
    104 H104       25.7942  -51.8494  -54.2560 H         1 UNK         0.0828 
    105 H105       27.3919  -51.3973  -53.6861 H         1 UNK         0.0828 
    106 H106       28.2901  -48.8507  -55.3274 H         1 UNK         0.3005 
    107 H107       31.1485  -50.3167  -56.7283 H         1 UNK         0.1257 
    108 H108       30.1112  -49.5067  -58.8281 H         1 UNK         0.0775 
    109 H109       29.4959  -48.0906  -58.0300 H         1 UNK         0.0775 
    110 H110       32.2032  -45.6565  -58.9452 H         1 UNK         0.0840 
    111 H111       30.5396  -46.1270  -59.1664 H         1 UNK         0.0840 
    112 H112       30.7680  -47.7031  -55.7390 H         1 UNK         0.2987 
    113 H113       32.0191  -47.2725  -53.8459 H         1 UNK         0.0785 
    114 H114       29.8024  -48.2547  -51.9536 H         1 UNK         0.0798 
    115 H115       30.6407  -46.7041  -51.8482 H         1 UNK         0.0798 
    116 H116       29.5975  -47.0499  -53.2138 H         1 UNK         0.0798 
    117 H117       32.1548  -48.7105  -51.3805 H         1 UNK         0.3079 
    118 H118       33.8069  -50.3598  -50.9116 H         1 UNK         0.0794 
    119 H119       35.3387  -51.3590  -52.6108 H         1 UNK         0.0786 
    120 H120       36.1853  -51.0277  -51.1084 H         1 UNK         0.0786 
    121 H121       36.4048  -49.9652  -52.4980 H         1 UNK         0.0786 
    122 H122       35.8800  -48.2619  -50.8327 H         1 UNK         0.3032 
    123 H123       34.1478  -46.2011  -48.5541 H         1 UNK         0.1094 
    124 H124       35.2833  -47.8449  -47.0558 H         1 UNK         0.0794 
    125 H125       36.6682  -47.9077  -48.1380 H         1 UNK         0.0794 
    126 H126       36.2782  -46.4157  -47.2830 H         1 UNK         0.0794 
    127 H127       36.7309  -46.2051  -49.9457 H         1 UNK         0.3016 
@<TRIPOS>BOND
     1    1    2 1    
     2    1   67 1    
     3    1   68 1    
     4    1   69 1    
     5    2    3 2    
     6    2    4 am   BACKBONE|DICT|INTERRES
     7    4    5 1    
     8    4   70 1    
     9    5    6 1    
    10    5   65 1    
    11    5   71 1    
    12    6    7 1    
    13    6   72 1    
    14    6   73 1    
    15    7    8 1    
    16    8    9 1    
    17    8   74 1    
    18    8   75 1    
    19    9   10 ar   
    20    9   14 ar   
    21   10   11 ar   
    22   10   76 1    
    23   11   12 ar   
    24   11   48 1    
    25   12   13 ar   
    26   12   77 1    
    27   13   14 ar   
    28   13   15 1    
    29   14   78 1    
    30   15   16 1    
    31   15   79 1    
    32   15   80 1    
    33   16   17 1    
    34   17   18 1    
    35   17   81 1    
    36   17   82 1    
    37   18   19 1    
    38   18   22 1    
    39   18   83 1    
    40   19   20 am   BACKBONE|DICT|INTERRES
    41   19   21 2    
    42   20   84 1    
    43   20   85 1    
    44   22   23 am   BACKBONE|DICT|INTERRES
    45   22   86 1    
    46   23   24 2    
    47   23   25 1    
    48   25   26 1    
    49   25   27 1    
    50   25   87 1    
    51   26   88 1    
    52   26   89 1    
    53   26   90 1    
    54   27   28 am   BACKBONE|DICT|INTERRES
    55   27   91 1    
    56   28   29 2    
    57   28   30 1    
    58   30   31 1    
    59   30   32 1    
    60   30   92 1    
    61   31   93 1    
    62   31   94 1    
    63   31   95 1    
    64   32   33 am   BACKBONE|DICT|INTERRES
    65   32   96 1    
    66   33   34 2    
    67   33   35 1    
    68   35   36 1    
    69   35   37 1    
    70   35   97 1    
    71   36   98 1    
    72   36   99 1    
    73   36  100 1    
    74   37   38 am   BACKBONE|DICT|INTERRES
    75   37  101 1    
    76   38   39 2    
    77   38   40 1    
    78   40   41 1    
    79   40   42 1    
    80   40  102 1    
    81   41  103 1    
    82   41  104 1    
    83   41  105 1    
    84   42   43 am   BACKBONE|DICT|INTERRES
    85   42  106 1    
    86   43   44 2    
    87   43   45 1    
    88   45   46 1    
    89   45   49 1    
    90   45  107 1    
    91   46   47 1    
    92   46  108 1    
    93   46  109 1    
    94   47   48 1    
    95   48  110 1    
    96   48  111 1    
    97   49   50 am   BACKBONE|DICT|INTERRES
    98   49  112 1    
    99   50   51 2    
   100   50   52 1    
   101   52   53 1    
   102   52   54 1    
   103   52  113 1    
   104   53  114 1    
   105   53  115 1    
   106   53  116 1    
   107   54   55 am   BACKBONE|DICT|INTERRES
   108   54  117 1    
   109   55   56 2    
   110   55   57 1    
   111   57   58 1    
   112   57   59 1    
   113   57  118 1    
   114   58  119 1    
   115   58  120 1    
   116   58  121 1    
   117   59   60 am   BACKBONE|DICT|INTERRES
   118   59  122 1    
   119   60   61 2    
   120   60   62 1    
   121   62   63 1    
   122   62   64 1    
   123   62  123 1    
   124   63  124 1    
   125   63  125 1    
   126   63  126 1    
   127   64   65 am   BACKBONE|DICT|INTERRES
   128   64  127 1    
   129   65   66 2    
@<TRIPOS>SUBSTRUCTURE
     1 UNK         1 GROUP             0       ****    0 ROOT    
