@<TRIPOS>MOLECULE
3R134
127   129    1
SMALL
USER_CHARGES


@<TRIPOS>ATOM
      1 CA         32.3020  -46.4004  -51.5163 C.3       0 UNK        -0.1968 
      2 C          33.5351  -46.1095  -52.3491 C.2       0 UNK         0.4852 
      3 O          33.5239  -46.3255  -53.5614 O.2       0 UNK        -0.5359 
      4 N          34.5977  -45.6245  -51.6944 N.am      1 UNK        -0.4300 
      5 CA         35.8717  -45.1999  -52.2837 C.3       1 UNK         0.0863 
      6 C6         35.7492  -43.9026  -53.1345 C.3       11 UNK        -0.0953 
      7 S7         35.0342  -42.5168  -52.1792 S.3       11 UNK        -0.2369 
      8 C8         33.8713  -41.7610  -53.3637 C.3       11 UNK         0.0226 
      9 C9         32.6475  -42.6277  -53.6364 C.ar      11 UNK        -0.0699 
     10 C10        31.5607  -42.6249  -52.7551 C.ar      11 UNK        -0.0804 
     11 C11        30.4263  -43.3983  -53.0260 C.ar      11 UNK        -0.0871 
     12 C12        30.3966  -44.1903  -54.1768 C.ar      11 UNK        -0.1008 
     13 C13        31.4781  -44.2121  -55.0668 C.ar      11 UNK        -0.0735 
     14 C14        32.5901  -43.4120  -54.7919 C.ar      11 UNK        -0.0945 
     15 C15        31.5231  -45.0964  -56.3162 C.3       11 UNK         0.0169 
     16 S16        30.0115  -46.0488  -56.6926 S.3       11 UNK        -0.2669 
     17 C17        28.9278  -44.7313  -57.3444 C.3       11 UNK        -0.0850 
     18 CA         27.5089  -45.2531  -57.7144 C.3       10 UNK         0.0855 
     19 C          26.5232  -44.1089  -58.1015 C.2       10 UNK         0.5543 
     20 N          25.5914  -44.3204  -59.0246 N.am      10 UNK        -0.7343 
     21 O          26.5811  -43.0190  -57.5373 O.2       10 UNK        -0.5027 
     22 N          27.5295  -46.3800  -58.6623 N.am      10 UNK        -0.4495 
     23 C          28.0159  -46.3615  -59.9127 C.2       10 UNK         0.4903 
     24 O          28.5483  -45.3800  -60.4314 O.2       10 UNK        -0.4860 
     25 CA         27.8846  -47.6533  -60.7436 C.3       9 UNK         0.0227 
     26 CB         29.2169  -48.4212  -60.7415 C.3       9 UNK        -0.1964 
     27 N          26.8182  -48.5463  -60.2844 N.am      9 UNK        -0.4231 
     28 C          25.5073  -48.2640  -60.2977 C.2       9 UNK         0.5014 
     29 O          25.0296  -47.2414  -60.7912 O.2       9 UNK        -0.5270 
     30 CA         24.5771  -49.2727  -59.5969 C.3       8 UNK         0.0284 
     31 CB         23.9902  -50.2620  -60.6168 C.3       8 UNK        -0.1977 
     32 N          25.2191  -50.0191  -58.5048 N.am      8 UNK        -0.4342 
     33 C          25.7430  -49.4658  -57.4018 C.2       8 UNK         0.5039 
     34 O          25.7750  -48.2508  -57.1943 O.2       8 UNK        -0.5547 
     35 CA         26.4073  -50.4255  -56.4033 C.3       7 UNK         0.0281 
     36 CB         27.9026  -50.5764  -56.7314 C.3       7 UNK        -0.1963 
     37 N          26.2555  -49.9473  -55.0271 N.am      7 UNK        -0.4444 
     38 C          25.1029  -49.9999  -54.3407 C.2       7 UNK         0.5104 
     39 O          24.0715  -50.5015  -54.7914 O.2       7 UNK        -0.5100 
     40 CA         25.0783  -49.4386  -52.9044 C.3       6 UNK         0.0396 
     41 CB         24.9792  -50.5853  -51.8845 C.3       6 UNK        -0.1801 
     42 N          26.2419  -48.6164  -52.5728 N.am      6 UNK        -0.4747 
     43 C          26.4286  -47.3464  -52.9597 C.2       6 UNK         0.5012 
     44 O          25.5897  -46.6921  -53.5790 O.2       6 UNK        -0.5003 
     45 CA         27.7862  -46.6990  -52.6070 C.3       5 UNK         0.0782 
     46 C46        27.6176  -45.6485  -51.4789 C.3       11 UNK        -0.0868 
     47 S47        29.1757  -44.8216  -50.9991 S.3       11 UNK        -0.2515 
     48 C48        29.2211  -43.3656  -52.0942 C.3       11 UNK         0.0199 
     49 N          28.8418  -47.6813  -52.3107 N.am      5 UNK        -0.4607 
     50 C          29.3625  -48.5188  -53.2156 C.2       4 UNK         0.5031 
     51 O          28.9450  -48.6217  -54.3694 O.2       4 UNK        -0.5119 
     52 CA         30.5052  -49.4257  -52.7580 C.3       4 UNK         0.0263 
     53 CB         29.9855  -50.8323  -52.4158 C.3       4 UNK        -0.1967 
     54 N          31.4593  -49.5021  -53.8578 N.am      4 UNK        -0.4237 
     55 C          32.7901  -49.5636  -53.7425 C.2       3 UNK         0.4908 
     56 O          33.3769  -49.6515  -52.6619 O.2       3 UNK        -0.5102 
     57 CA         33.6130  -49.5370  -55.0419 C.3       3 UNK         0.0241 
     58 CB         32.7881  -49.2604  -56.3188 C.3       3 UNK        -0.1971 
     59 N          34.6734  -48.5359  -54.9226 N.am      3 UNK        -0.4139 
     60 C          35.9338  -48.6925  -55.3496 C.2       2 UNK         0.5016 
     61 O          36.3489  -49.7298  -55.8699 O.2       2 UNK        -0.5319 
     62 CA         36.9061  -47.5031  -55.2128 C.3       2 UNK         0.0286 
     63 CB         37.2210  -46.9102  -56.5970 C.3       2 UNK        -0.1963 
     64 N          36.4036  -46.4296  -54.3535 N.am      2 UNK        -0.4790 
     65 C          36.5523  -46.3745  -53.0233 C.2       1 UNK         0.5024 
     66 O          37.1805  -47.2115  -52.3731 O.2       1 UNK        -0.4888 
     67 H67        32.1435  -45.6240  -50.7682 H         1 UNK         0.0892 
     68 H68        31.4235  -46.4323  -52.1586 H         1 UNK         0.0892 
     69 H69        32.4058  -47.3587  -51.0096 H         1 UNK         0.0892 
     70 H70        34.5369  -45.5059  -50.6932 H         1 UNK         0.3107 
     71 H71        36.5238  -44.9667  -51.4403 H         1 UNK         0.0773 
     72 H72        36.7317  -43.5892  -53.4917 H         1 UNK         0.0680 
     73 H73        35.1429  -44.0765  -54.0217 H         1 UNK         0.0680 
     74 H74        34.4000  -41.5389  -54.2921 H         1 UNK         0.0650 
     75 H75        33.5474  -40.7988  -52.9648 H         1 UNK         0.0650 
     76 H76        31.5969  -42.0126  -51.8644 H         1 UNK         0.1397 
     77 H77        29.5237  -44.7903  -54.3699 H         1 UNK         0.1363 
     78 H78        33.4265  -43.4161  -55.4768 H         1 UNK         0.1355 
     79 H79        31.7784  -44.4864  -57.1839 H         1 UNK         0.0707 
     80 H80        32.3401  -45.8083  -56.1904 H         1 UNK         0.0707 
     81 H81        28.8566  -43.9460  -56.5905 H         1 UNK         0.1034 
     82 H82        29.4081  -44.2711  -58.2089 H         1 UNK         0.1034 
     83 H83        27.0825  -45.6711  -56.8015 H         1 UNK         0.0482 
     84 H84        24.9516  -43.5787  -59.2610 H         1 UNK         0.3460 
     85 H85        25.5261  -45.2140  -59.4905 H         1 UNK         0.3460 
     86 H86        27.0595  -47.2136  -58.3236 H         1 UNK         0.2989 
     87 H87        27.6562  -47.3620  -61.7709 H         1 UNK         0.0559 
     88 H88        30.0285  -47.7939  -61.1131 H         1 UNK         0.0848 
     89 H89        29.4936  -48.7470  -59.7376 H         1 UNK         0.0848 
     90 H90        29.1719  -49.3016  -61.3828 H         1 UNK         0.0848 
     91 H91        27.1066  -49.4148  -59.8592 H         1 UNK         0.3144 
     92 H92        23.7539  -48.7021  -59.1616 H         1 UNK         0.0727 
     93 H93        23.2536  -50.9197  -60.1549 H         1 UNK         0.0790 
     94 H94        24.7634  -50.8853  -61.0680 H         1 UNK         0.0790 
     95 H95        23.4851  -49.7332  -61.4266 H         1 UNK         0.0790 
     96 H96        25.2438  -51.0248  -58.6016 H         1 UNK         0.3215 
     97 H97        25.9334  -51.4068  -56.4789 H         1 UNK         0.0863 
     98 H98        28.4123  -51.1986  -55.9955 H         1 UNK         0.0808 
     99 H99        28.4087  -49.6101  -56.7602 H         1 UNK         0.0808 
    100 H100       28.0448  -51.0449  -57.7059 H         1 UNK         0.0808 
    101 H101       27.0506  -49.4585  -54.6304 H         1 UNK         0.3118 
    102 H102       24.1805  -48.8238  -52.8109 H         1 UNK         0.0546 
    103 H103       24.0981  -51.2006  -52.0721 H         1 UNK         0.0828 
    104 H104       24.8939  -50.2058  -50.8661 H         1 UNK         0.0828 
    105 H105       25.8491  -51.2419  -51.9282 H         1 UNK         0.0828 
    106 H106       26.9863  -49.0677  -52.0614 H         1 UNK         0.3005 
    107 H107       28.0882  -46.1725  -53.5122 H         1 UNK         0.1257 
    108 H108       27.2168  -46.1264  -50.5829 H         1 UNK         0.0775 
    109 H109       26.8841  -44.8907  -51.7614 H         1 UNK         0.0775 
    110 H110       28.3073  -43.2982  -52.6860 H         1 UNK         0.0840 
    111 H111       29.2443  -42.4661  -51.4771 H         1 UNK         0.0840 
    112 H112       29.2211  -47.6531  -51.3752 H         1 UNK         0.2987 
    113 H113       30.9787  -48.9920  -51.8765 H         1 UNK         0.0785 
    114 H114       29.2683  -50.7966  -51.5949 H         1 UNK         0.0798 
    115 H115       30.7990  -51.4889  -52.1068 H         1 UNK         0.0798 
    116 H116       29.4868  -51.2967  -53.2679 H         1 UNK         0.0798 
    117 H117       31.0446  -49.3699  -54.7721 H         1 UNK         0.3079 
    118 H118       34.0546  -50.5315  -55.1315 H         1 UNK         0.0794 
    119 H119       32.0329  -50.0302  -56.4829 H         1 UNK         0.0786 
    120 H120       33.4267  -49.2540  -57.2023 H         1 UNK         0.0786 
    121 H121       32.2822  -48.2951  -56.2737 H         1 UNK         0.0786 
    122 H122       34.4046  -47.6730  -54.4486 H         1 UNK         0.3032 
    123 H123       37.8349  -47.8952  -54.7919 H         1 UNK         0.1094 
    124 H124       37.9544  -46.1067  -56.5273 H         1 UNK         0.0794 
    125 H125       37.6370  -47.6683  -57.2623 H         1 UNK         0.0794 
    126 H126       36.3274  -46.5102  -57.0779 H         1 UNK         0.0794 
    127 H127       35.8149  -45.7363  -54.7932 H         1 UNK         0.3016 
@<TRIPOS>BOND
     1    1    2 1    
     2    1   67 1    
     3    1   68 1    
     4    1   69 1    
     5    2    3 2    
     6    2    4 am   BACKBONE|DICT|INTERRES
     7    4    5 1    
     8    4   70 1    
     9    5    6 1    
    10    5   65 1    
    11    5   71 1    
    12    6    7 1    
    13    6   72 1    
    14    6   73 1    
    15    7    8 1    
    16    8    9 1    
    17    8   74 1    
    18    8   75 1    
    19    9   10 ar   
    20    9   14 ar   
    21   10   11 ar   
    22   10   76 1    
    23   11   12 ar   
    24   11   48 1    
    25   12   13 ar   
    26   12   77 1    
    27   13   14 ar   
    28   13   15 1    
    29   14   78 1    
    30   15   16 1    
    31   15   79 1    
    32   15   80 1    
    33   16   17 1    
    34   17   18 1    
    35   17   81 1    
    36   17   82 1    
    37   18   19 1    
    38   18   22 1    
    39   18   83 1    
    40   19   20 am   BACKBONE|DICT|INTERRES
    41   19   21 2    
    42   20   84 1    
    43   20   85 1    
    44   22   23 am   BACKBONE|DICT|INTERRES
    45   22   86 1    
    46   23   24 2    
    47   23   25 1    
    48   25   26 1    
    49   25   27 1    
    50   25   87 1    
    51   26   88 1    
    52   26   89 1    
    53   26   90 1    
    54   27   28 am   BACKBONE|DICT|INTERRES
    55   27   91 1    
    56   28   29 2    
    57   28   30 1    
    58   30   31 1    
    59   30   32 1    
    60   30   92 1    
    61   31   93 1    
    62   31   94 1    
    63   31   95 1    
    64   32   33 am   BACKBONE|DICT|INTERRES
    65   32   96 1    
    66   33   34 2    
    67   33   35 1    
    68   35   36 1    
    69   35   37 1    
    70   35   97 1    
    71   36   98 1    
    72   36   99 1    
    73   36  100 1    
    74   37   38 am   BACKBONE|DICT|INTERRES
    75   37  101 1    
    76   38   39 2    
    77   38   40 1    
    78   40   41 1    
    79   40   42 1    
    80   40  102 1    
    81   41  103 1    
    82   41  104 1    
    83   41  105 1    
    84   42   43 am   BACKBONE|DICT|INTERRES
    85   42  106 1    
    86   43   44 2    
    87   43   45 1    
    88   45   46 1    
    89   45   49 1    
    90   45  107 1    
    91   46   47 1    
    92   46  108 1    
    93   46  109 1    
    94   47   48 1    
    95   48  110 1    
    96   48  111 1    
    97   49   50 am   BACKBONE|DICT|INTERRES
    98   49  112 1    
    99   50   51 2    
   100   50   52 1    
   101   52   53 1    
   102   52   54 1    
   103   52  113 1    
   104   53  114 1    
   105   53  115 1    
   106   53  116 1    
   107   54   55 am   BACKBONE|DICT|INTERRES
   108   54  117 1    
   109   55   56 2    
   110   55   57 1    
   111   57   58 1    
   112   57   59 1    
   113   57  118 1    
   114   58  119 1    
   115   58  120 1    
   116   58  121 1    
   117   59   60 am   BACKBONE|DICT|INTERRES
   118   59  122 1    
   119   60   61 2    
   120   60   62 1    
   121   62   63 1    
   122   62   64 1    
   123   62  123 1    
   124   63  124 1    
   125   63  125 1    
   126   63  126 1    
   127   64   65 am   BACKBONE|DICT|INTERRES
   128   64  127 1    
   129   65   66 2    
@<TRIPOS>SUBSTRUCTURE
     1 UNK         1 GROUP             0       ****    0 ROOT    
