@<TRIPOS>MOLECULE
3R134
127   129    1
SMALL
USER_CHARGES


@<TRIPOS>ATOM
      1 CA         33.0043  -45.0985  -56.6397 C.3       0 UNK        -0.1968 
      2 C          34.0482  -44.9944  -55.5366 C.2       0 UNK         0.4852 
      3 O          35.2435  -45.0701  -55.8225 O.2       0 UNK        -0.5359 
      4 N          33.5930  -44.8205  -54.2877 N.am      1 UNK        -0.4300 
      5 CA         34.3921  -44.6444  -53.0660 C.3       1 UNK         0.0863 
      6 C6         35.1626  -43.2937  -53.0177 C.3       11 UNK        -0.0953 
      7 S7         34.2091  -41.7867  -53.4361 S.3       11 UNK        -0.2369 
      8 C8         32.6969  -41.8803  -52.4163 C.3       11 UNK         0.0226 
      9 C9         31.5701  -42.6395  -53.1089 C.ar      11 UNK        -0.0699 
     10 C10        31.0011  -43.7655  -52.5048 C.ar      11 UNK        -0.0804 
     11 C11        30.0028  -44.4931  -53.1594 C.ar      11 UNK        -0.0871 
     12 C12        29.5447  -44.0676  -54.4082 C.ar      11 UNK        -0.1008 
     13 C13        30.0910  -42.9348  -55.0141 C.ar      11 UNK        -0.0735 
     14 C14        31.0991  -42.2211  -54.3595 C.ar      11 UNK        -0.0945 
     15 C15        29.5991  -42.5055  -56.3853 C.3       11 UNK         0.0169 
     16 S16        28.1692  -41.3938  -56.2403 S.3       11 UNK        -0.2669 
     17 C17        27.4331  -41.5483  -57.9037 C.3       11 UNK        -0.0850 
     18 CA         26.0567  -42.2658  -57.8768 C.3       10 UNK         0.0855 
     19 C          25.3707  -42.2156  -59.2749 C.2       10 UNK         0.5543 
     20 N          25.0411  -43.3353  -59.9081 N.am      10 UNK        -0.7343 
     21 O          25.1252  -41.1298  -59.7948 O.2       10 UNK        -0.5027 
     22 N          26.1426  -43.6136  -57.2863 N.am      10 UNK        -0.4495 
     23 C          25.1149  -44.2613  -56.7223 C.2       10 UNK         0.4903 
     24 O          24.0008  -43.7586  -56.5640 O.2       10 UNK        -0.4860 
     25 CA         25.3721  -45.7136  -56.2613 C.3       9 UNK         0.0227 
     26 CB         24.0670  -46.5246  -56.1241 C.3       9 UNK        -0.1964 
     27 N          26.3381  -46.4598  -57.0814 N.am      9 UNK        -0.4231 
     28 C          26.3124  -46.6448  -58.4118 C.2       9 UNK         0.5014 
     29 O          25.4838  -46.1363  -59.1675 O.2       9 UNK        -0.5270 
     30 CA         27.4042  -47.5511  -58.9951 C.3       8 UNK         0.0284 
     31 CB         28.7830  -46.8689  -58.9316 C.3       8 UNK        -0.1977 
     32 N          27.4447  -48.8312  -58.2869 N.am      8 UNK        -0.4342 
     33 C          26.7231  -49.9109  -58.6215 C.2       8 UNK         0.5039 
     34 O          25.9903  -49.9646  -59.6101 O.2       8 UNK        -0.5547 
     35 CA         26.8369  -51.1496  -57.7123 C.3       7 UNK         0.0281 
     36 CB         27.8633  -52.1413  -58.2836 C.3       7 UNK        -0.1963 
     37 N          27.2025  -50.8114  -56.3346 N.am      7 UNK        -0.4444 
     38 C          26.3562  -50.2676  -55.4454 C.2       7 UNK         0.5104 
     39 O          25.1560  -50.1038  -55.6626 O.2       7 UNK        -0.5100 
     40 CA         26.9391  -49.8005  -54.0955 C.3       6 UNK         0.0396 
     41 CB         26.6583  -50.8405  -53.0001 C.3       6 UNK        -0.1801 
     42 N          28.3771  -49.5209  -54.1343 N.am      6 UNK        -0.4747 
     43 C          28.9649  -48.5973  -54.9076 C.2       6 UNK         0.5012 
     44 O          28.3394  -47.8111  -55.6209 O.2       6 UNK        -0.5003 
     45 CA         30.5064  -48.5810  -54.9525 C.3       5 UNK         0.0782 
     46 C46        31.0882  -47.3181  -54.2783 C.3       11 UNK        -0.0868 
     47 S47        30.6725  -47.1016  -52.5070 S.3       11 UNK        -0.2515 
     48 C48        29.4394  -45.7610  -52.5368 C.3       11 UNK         0.0199 
     49 N          31.1644  -49.8272  -54.5204 N.am      5 UNK        -0.4607 
     50 C          31.0075  -51.0106  -55.1403 C.2       4 UNK         0.5031 
     51 O          30.1807  -51.1824  -56.0377 O.2       4 UNK        -0.5119 
     52 CA         31.9029  -52.2003  -54.7414 C.3       4 UNK         0.0263 
     53 CB         32.6670  -52.7304  -55.9677 C.3       4 UNK        -0.1967 
     54 N          32.8749  -51.8838  -53.6943 N.am      4 UNK        -0.4237 
     55 C          32.6913  -52.0899  -52.3837 C.2       3 UNK         0.4908 
     56 O          31.6726  -52.5923  -51.9075 O.2       3 UNK        -0.5102 
     57 CA         33.8308  -51.6612  -51.4328 C.3       3 UNK         0.0241 
     58 CB         34.6829  -52.8804  -51.0426 C.3       3 UNK        -0.1971 
     59 N          34.7179  -50.5937  -51.9258 N.am      3 UNK        -0.4139 
     60 C          34.3095  -49.3882  -52.3427 C.2       2 UNK         0.5016 
     61 O          33.1230  -49.0857  -52.4637 O.2       2 UNK        -0.5319 
     62 CA         35.3843  -48.3641  -52.7270 C.3       2 UNK         0.0286 
     63 CB         36.0954  -48.7659  -54.0328 C.3       2 UNK        -0.1963 
     64 N          34.7307  -47.0688  -52.9068 N.am      2 UNK        -0.4790 
     65 C          35.3012  -45.8654  -52.7813 C.2       1 UNK         0.5024 
     66 O          36.4833  -45.7079  -52.4685 O.2       1 UNK        -0.4888 
     67 H67        32.9735  -46.1140  -57.0336 H         1 UNK         0.0892 
     68 H68        32.0077  -44.8374  -56.2857 H         1 UNK         0.0892 
     69 H69        33.2546  -44.4228  -57.4571 H         1 UNK         0.0892 
     70 H70        32.5963  -44.7288  -54.1446 H         1 UNK         0.3107 
     71 H71        33.6797  -44.6360  -52.2416 H         1 UNK         0.0773 
     72 H72        35.5889  -43.1455  -52.0239 H         1 UNK         0.0680 
     73 H73        36.0109  -43.3263  -53.7038 H         1 UNK         0.0680 
     74 H74        32.3531  -40.8648  -52.2156 H         1 UNK         0.0650 
     75 H75        32.9387  -42.3183  -51.4468 H         1 UNK         0.0650 
     76 H76        31.3526  -44.0977  -51.5372 H         1 UNK         0.1397 
     77 H77        28.7716  -44.6272  -54.9179 H         1 UNK         0.1363 
     78 H78        31.5296  -41.3472  -54.8293 H         1 UNK         0.1355 
     79 H79        29.3277  -43.3884  -56.9661 H         1 UNK         0.0707 
     80 H80        30.3946  -42.0039  -56.9387 H         1 UNK         0.0707 
     81 H81        28.1212  -42.0601  -58.5789 H         1 UNK         0.1034 
     82 H82        27.3253  -40.5374  -58.3021 H         1 UNK         0.1034 
     83 H83        25.4117  -41.6726  -57.2253 H         1 UNK         0.0482 
     84 H84        24.5944  -43.2740  -60.8088 H         1 UNK         0.3460 
     85 H85        25.2204  -44.2481  -59.5002 H         1 UNK         0.3460 
     86 H86        27.0205  -44.0970  -57.3914 H         1 UNK         0.2989 
     87 H87        25.8183  -45.6375  -55.2687 H         1 UNK         0.0559 
     88 H88        23.5482  -46.6148  -57.0791 H         1 UNK         0.0848 
     89 H89        23.3792  -46.0532  -55.4210 H         1 UNK         0.0848 
     90 H90        24.2627  -47.5305  -55.7536 H         1 UNK         0.0848 
     91 H91        27.0832  -46.9169  -56.5568 H         1 UNK         0.3144 
     92 H92        27.1697  -47.7254  -60.0477 H         1 UNK         0.0727 
     93 H93        29.5510  -47.4918  -59.3906 H         1 UNK         0.0790 
     94 H94        29.0961  -46.6552  -57.9094 H         1 UNK         0.0790 
     95 H95        28.7717  -45.9215  -59.4723 H         1 UNK         0.0790 
     96 H96        27.9687  -48.8527  -57.4217 H         1 UNK         0.3215 
     97 H97        25.8614  -51.6411  -57.7002 H         1 UNK         0.0863 
     98 H98        27.9372  -53.0373  -57.6670 H         1 UNK         0.0808 
     99 H99        28.8579  -51.6992  -58.3532 H         1 UNK         0.0808 
    100 H100       27.5788  -52.4605  -59.2872 H         1 UNK         0.0808 
    101 H101       28.1791  -50.9321  -56.0800 H         1 UNK         0.3118 
    102 H102       26.4306  -48.8722  -53.8265 H         1 UNK         0.0546 
    103 H103       25.5902  -51.0499  -52.9252 H         1 UNK         0.0828 
    104 H104       26.9856  -50.4865  -52.0223 H         1 UNK         0.0828 
    105 H105       27.1623  -51.7864  -53.2025 H         1 UNK         0.0828 
    106 H106       28.9756  -50.1188  -53.5822 H         1 UNK         0.3005 
    107 H107       30.7456  -48.4912  -56.0150 H         1 UNK         0.1257 
    108 H108       30.7762  -46.4409  -54.8423 H         1 UNK         0.0775 
    109 H109       32.1740  -47.3378  -54.3666 H         1 UNK         0.0775 
    110 H110       28.5519  -46.1013  -53.0730 H         1 UNK         0.0840 
    111 H111       29.1181  -45.5508  -51.5158 H         1 UNK         0.0840 
    112 H112       31.8315  -49.7354  -53.7578 H         1 UNK         0.2987 
    113 H113       31.2370  -52.9936  -54.3954 H         1 UNK         0.0785 
    114 H114       33.3303  -51.9741  -56.3891 H         1 UNK         0.0798 
    115 H115       31.9800  -53.0377  -56.7577 H         1 UNK         0.0798 
    116 H116       33.2701  -53.6019  -55.7125 H         1 UNK         0.0798 
    117 H117       33.7371  -51.4509  -53.9912 H         1 UNK         0.3079 
    118 H118       33.3523  -51.2800  -50.5283 H         1 UNK         0.0794 
    119 H119       35.2243  -53.2843  -51.8992 H         1 UNK         0.0786 
    120 H120       34.0601  -53.6825  -50.6434 H         1 UNK         0.0786 
    121 H121       35.4114  -52.6274  -50.2720 H         1 UNK         0.0786 
    122 H122       35.7099  -50.7777  -51.8756 H         1 UNK         0.3032 
    123 H123       36.1062  -48.3000  -51.9096 H         1 UNK         0.1094 
    124 H124       36.8488  -48.0302  -54.3155 H         1 UNK         0.0794 
    125 H125       36.6063  -49.7238  -53.9301 H         1 UNK         0.0794 
    126 H126       35.3923  -48.8546  -54.8621 H         1 UNK         0.0794 
    127 H127       33.7333  -47.1394  -53.0699 H         1 UNK         0.3016 
@<TRIPOS>BOND
     1    1    2 1    
     2    1   67 1    
     3    1   68 1    
     4    1   69 1    
     5    2    3 2    
     6    2    4 am   BACKBONE|DICT|INTERRES
     7    4    5 1    
     8    4   70 1    
     9    5    6 1    
    10    5   65 1    
    11    5   71 1    
    12    6    7 1    
    13    6   72 1    
    14    6   73 1    
    15    7    8 1    
    16    8    9 1    
    17    8   74 1    
    18    8   75 1    
    19    9   10 ar   
    20    9   14 ar   
    21   10   11 ar   
    22   10   76 1    
    23   11   12 ar   
    24   11   48 1    
    25   12   13 ar   
    26   12   77 1    
    27   13   14 ar   
    28   13   15 1    
    29   14   78 1    
    30   15   16 1    
    31   15   79 1    
    32   15   80 1    
    33   16   17 1    
    34   17   18 1    
    35   17   81 1    
    36   17   82 1    
    37   18   19 1    
    38   18   22 1    
    39   18   83 1    
    40   19   20 am   BACKBONE|DICT|INTERRES
    41   19   21 2    
    42   20   84 1    
    43   20   85 1    
    44   22   23 am   BACKBONE|DICT|INTERRES
    45   22   86 1    
    46   23   24 2    
    47   23   25 1    
    48   25   26 1    
    49   25   27 1    
    50   25   87 1    
    51   26   88 1    
    52   26   89 1    
    53   26   90 1    
    54   27   28 am   BACKBONE|DICT|INTERRES
    55   27   91 1    
    56   28   29 2    
    57   28   30 1    
    58   30   31 1    
    59   30   32 1    
    60   30   92 1    
    61   31   93 1    
    62   31   94 1    
    63   31   95 1    
    64   32   33 am   BACKBONE|DICT|INTERRES
    65   32   96 1    
    66   33   34 2    
    67   33   35 1    
    68   35   36 1    
    69   35   37 1    
    70   35   97 1    
    71   36   98 1    
    72   36   99 1    
    73   36  100 1    
    74   37   38 am   BACKBONE|DICT|INTERRES
    75   37  101 1    
    76   38   39 2    
    77   38   40 1    
    78   40   41 1    
    79   40   42 1    
    80   40  102 1    
    81   41  103 1    
    82   41  104 1    
    83   41  105 1    
    84   42   43 am   BACKBONE|DICT|INTERRES
    85   42  106 1    
    86   43   44 2    
    87   43   45 1    
    88   45   46 1    
    89   45   49 1    
    90   45  107 1    
    91   46   47 1    
    92   46  108 1    
    93   46  109 1    
    94   47   48 1    
    95   48  110 1    
    96   48  111 1    
    97   49   50 am   BACKBONE|DICT|INTERRES
    98   49  112 1    
    99   50   51 2    
   100   50   52 1    
   101   52   53 1    
   102   52   54 1    
   103   52  113 1    
   104   53  114 1    
   105   53  115 1    
   106   53  116 1    
   107   54   55 am   BACKBONE|DICT|INTERRES
   108   54  117 1    
   109   55   56 2    
   110   55   57 1    
   111   57   58 1    
   112   57   59 1    
   113   57  118 1    
   114   58  119 1    
   115   58  120 1    
   116   58  121 1    
   117   59   60 am   BACKBONE|DICT|INTERRES
   118   59  122 1    
   119   60   61 2    
   120   60   62 1    
   121   62   63 1    
   122   62   64 1    
   123   62  123 1    
   124   63  124 1    
   125   63  125 1    
   126   63  126 1    
   127   64   65 am   BACKBONE|DICT|INTERRES
   128   64  127 1    
   129   65   66 2    
@<TRIPOS>SUBSTRUCTURE
     1 UNK         1 GROUP             0       ****    0 ROOT    
