@<TRIPOS>MOLECULE
3R134
127   129    1
SMALL
USER_CHARGES


@<TRIPOS>ATOM
      1 CA         34.8230  -46.0168  -48.3459 C.3       0 UNK        -0.1968 
      2 C          35.3838  -46.1140  -49.7568 C.2       0 UNK         0.4852 
      3 O          36.5212  -46.5533  -49.9353 O.2       0 UNK        -0.5359 
      4 N          34.5923  -45.7243  -50.7653 N.am      1 UNK        -0.4300 
      5 CA         34.9463  -45.7179  -52.1909 C.3       1 UNK         0.0863 
      6 C6         34.0755  -44.6865  -52.9603 C.3       11 UNK        -0.0953 
      7 S7         34.7877  -44.2004  -54.5688 S.3       11 UNK        -0.2369 
      8 C8         33.7946  -42.7302  -54.9775 C.3       11 UNK         0.0226 
      9 C9         32.3188  -43.0592  -55.1602 C.ar      11 UNK        -0.0699 
     10 C10        31.4012  -42.7598  -54.1486 C.ar      11 UNK        -0.0804 
     11 C11        30.0408  -43.0413  -54.3096 C.ar      11 UNK        -0.0871 
     12 C12        29.6035  -43.6176  -55.5075 C.ar      11 UNK        -0.1008 
     13 C13        30.5129  -43.9450  -56.5179 C.ar      11 UNK        -0.0735 
     14 C14        31.8690  -43.6554  -56.3420 C.ar      11 UNK        -0.0945 
     15 C15        30.0400  -44.6687  -57.7702 C.3       11 UNK         0.0169 
     16 S16        29.6824  -43.5589  -59.1712 S.3       11 UNK        -0.2669 
     17 C17        28.2491  -42.5709  -58.6047 C.3       11 UNK        -0.0850 
     18 CA         26.8584  -43.2141  -58.8609 C.3       10 UNK         0.0855 
     19 C          26.5024  -43.3304  -60.3736 C.2       10 UNK         0.5543 
     20 N          26.1236  -44.4950  -60.8890 N.am      10 UNK        -0.7343 
     21 O          26.5521  -42.3348  -61.0918 O.2       10 UNK        -0.5027 
     22 N          26.6995  -44.4581  -58.0975 N.am      10 UNK        -0.4495 
     23 C          25.5470  -44.9325  -57.6131 C.2       10 UNK         0.4903 
     24 O          24.4719  -44.3365  -57.6916 O.2       10 UNK        -0.4860 
     25 CA         25.6257  -46.3070  -56.9190 C.3       9 UNK         0.0227 
     26 CB         24.2489  -46.9864  -56.7703 C.3       9 UNK        -0.1964 
     27 N          26.5886  -47.2332  -57.5329 N.am      9 UNK        -0.4231 
     28 C          26.6018  -47.6629  -58.8050 C.2       9 UNK         0.5014 
     29 O          25.8320  -47.2574  -59.6766 O.2       9 UNK        -0.5270 
     30 CA         27.6577  -48.7143  -59.1748 C.3       8 UNK         0.0284 
     31 CB         28.9450  -48.0317  -59.6685 C.3       8 UNK        -0.1977 
     32 N          27.9713  -49.5913  -58.0419 N.am      8 UNK        -0.4342 
     33 C          27.4907  -50.8306  -57.8815 C.2       8 UNK         0.5039 
     34 O          26.7330  -51.3820  -58.6813 O.2       8 UNK        -0.5547 
     35 CA         27.9440  -51.6011  -56.6297 C.3       7 UNK         0.0281 
     36 CB         29.3879  -52.1049  -56.7901 C.3       7 UNK        -0.1963 
     37 N          27.8255  -50.8418  -55.3824 N.am      7 UNK        -0.4444 
     38 C          26.6622  -50.5400  -54.7856 C.2       7 UNK         0.5104 
     39 O          25.5575  -50.7820  -55.2716 O.2       7 UNK        -0.5100 
     40 CA         26.7422  -49.8718  -53.4035 C.3       6 UNK         0.0396 
     41 CB         27.1367  -50.8936  -52.3236 C.3       6 UNK        -0.1801 
     42 N          27.7056  -48.7719  -53.4179 N.am      6 UNK        -0.4747 
     43 C          27.3760  -47.4787  -53.5518 C.2       6 UNK         0.5012 
     44 O          26.2153  -47.0710  -53.5153 O.2       6 UNK        -0.5003 
     45 CA         28.5180  -46.4657  -53.8052 C.3       5 UNK         0.0782 
     46 C46        28.7136  -45.4733  -52.6269 C.3       11 UNK        -0.0868 
     47 S47        27.7580  -43.9397  -52.8907 S.3       11 UNK        -0.2515 
     48 C48        29.0659  -42.6955  -53.1837 C.3       11 UNK         0.0199 
     49 N          29.7786  -47.0978  -54.2062 N.am      5 UNK        -0.4607 
     50 C          29.9769  -47.6965  -55.3875 C.2       4 UNK         0.5031 
     51 O          29.1223  -47.7491  -56.2708 O.2       4 UNK        -0.5119 
     52 CA         31.3151  -48.4211  -55.5939 C.3       4 UNK         0.0263 
     53 CB         32.3236  -47.4957  -56.2891 C.3       4 UNK        -0.1967 
     54 N          31.8837  -48.9475  -54.3469 N.am      4 UNK        -0.4237 
     55 C          31.3042  -49.8966  -53.5927 C.2       3 UNK         0.4908 
     56 O          30.2154  -50.3969  -53.8834 O.2       3 UNK        -0.5102 
     57 CA         31.9896  -50.3193  -52.2749 C.3       3 UNK         0.0241 
     58 CB         31.8412  -51.8315  -52.0029 C.3       3 UNK        -0.1971 
     59 N          33.3865  -49.8832  -52.1402 N.am      3 UNK        -0.4139 
     60 C          34.4425  -50.2600  -52.8781 C.2       2 UNK         0.5016 
     61 O          34.3954  -51.1280  -53.7515 O.2       2 UNK        -0.5319 
     62 CA         35.7665  -49.5047  -52.6138 C.3       2 UNK         0.0286 
     63 CB         36.7224  -49.5670  -53.8240 C.3       2 UNK        -0.1963 
     64 N          35.6008  -48.1025  -52.1879 N.am      2 UNK        -0.4790 
     65 C          34.8948  -47.1402  -52.8026 C.2       1 UNK         0.5024 
     66 O          34.1914  -47.3604  -53.7868 O.2       1 UNK        -0.4888 
     67 H67        34.8038  -47.0022  -47.8811 H         1 UNK         0.0892 
     68 H68        33.8093  -45.6167  -48.3355 H         1 UNK         0.0892 
     69 H69        35.4503  -45.3655  -47.7380 H         1 UNK         0.0892 
     70 H70        33.6592  -45.4009  -50.5526 H         1 UNK         0.3107 
     71 H71        35.9852  -45.3889  -52.2658 H         1 UNK         0.0773 
     72 H72        33.0599  -45.0582  -53.1112 H         1 UNK         0.0680 
     73 H73        33.9775  -43.7752  -52.3680 H         1 UNK         0.0680 
     74 H74        33.9300  -41.9771  -54.1997 H         1 UNK         0.0650 
     75 H75        34.1827  -42.2899  -55.8971 H         1 UNK         0.0650 
     76 H76        31.7503  -42.3031  -53.2325 H         1 UNK         0.1397 
     77 H77        28.5529  -43.8279  -55.6475 H         1 UNK         0.1363 
     78 H78        32.5782  -43.9060  -57.1191 H         1 UNK         0.1355 
     79 H79        29.1732  -45.2863  -57.5421 H         1 UNK         0.0707 
     80 H80        30.8135  -45.3656  -58.0927 H         1 UNK         0.0707 
     81 H81        28.3014  -41.6026  -59.1059 H         1 UNK         0.1034 
     82 H82        28.3598  -42.3350  -57.5474 H         1 UNK         0.1034 
     83 H83        26.1282  -42.5052  -58.4657 H         1 UNK         0.0482 
     84 H84        25.8914  -44.5433  -61.8680 H         1 UNK         0.3460 
     85 H85        26.0471  -45.3272  -60.3154 H         1 UNK         0.3460 
     86 H86        27.5201  -45.0393  -58.0379 H         1 UNK         0.2989 
     87 H87        25.9988  -46.0998  -55.9177 H         1 UNK         0.0559 
     88 H88        23.7899  -47.1853  -57.7392 H         1 UNK         0.0848 
     89 H89        23.5597  -46.3585  -56.2043 H         1 UNK         0.0848 
     90 H90        24.3325  -47.9334  -56.2363 H         1 UNK         0.0848 
     91 H91        27.3349  -47.5634  -56.9277 H         1 UNK         0.3144 
     92 H92        27.2558  -49.3014  -60.0033 H         1 UNK         0.0727 
     93 H93        29.6731  -48.7670  -60.0113 H         1 UNK         0.0790 
     94 H94        29.4182  -47.4346  -58.8897 H         1 UNK         0.0790 
     95 H95        28.7375  -47.3662  -60.5078 H         1 UNK         0.0790 
     96 H96        28.5521  -49.1866  -57.3126 H         1 UNK         0.3215 
     97 H97        27.2992  -52.4784  -56.5402 H         1 UNK         0.0863 
     98 H98        29.6877  -52.7245  -55.9446 H         1 UNK         0.0808 
     99 H99        30.0996  -51.2838  -56.8693 H         1 UNK         0.0808 
    100 H100       29.4909  -52.7129  -57.6899 H         1 UNK         0.0808 
    101 H101       28.6918  -50.6471  -54.8845 H         1 UNK         0.3118 
    102 H102       25.7457  -49.5010  -53.1543 H         1 UNK         0.0546 
    103 H103       26.4216  -51.7165  -52.2884 H         1 UNK         0.0828 
    104 H104       27.1513  -50.4358  -51.3346 H         1 UNK         0.0828 
    105 H105       28.1207  -51.3268  -52.5047 H         1 UNK         0.0828 
    106 H106       28.6821  -49.0348  -53.4769 H         1 UNK         0.3005 
    107 H107       28.1890  -45.9005  -54.6780 H         1 UNK         0.1257 
    108 H108       29.7650  -45.2044  -52.5137 H         1 UNK         0.0775 
    109 H109       28.4253  -45.9139  -51.6704 H         1 UNK         0.0775 
    110 H110       28.5919  -41.7413  -53.4172 H         1 UNK         0.0840 
    111 H111       29.6051  -42.5476  -52.2467 H         1 UNK         0.0840 
    112 H112       30.5283  -47.0980  -53.5310 H         1 UNK         0.2987 
    113 H113       31.1320  -49.2704  -56.2532 H         1 UNK         0.0785 
    114 H114       31.9731  -47.2173  -57.2826 H         1 UNK         0.0798 
    115 H115       33.2902  -47.9837  -56.4154 H         1 UNK         0.0798 
    116 H116       32.4852  -46.5749  -55.7263 H         1 UNK         0.0798 
    117 H117       32.7721  -48.5442  -54.0563 H         1 UNK         0.3079 
    118 H118       31.4439  -49.7974  -51.4876 H         1 UNK         0.0794 
    119 H119       32.2866  -52.4328  -52.7959 H         1 UNK         0.0786 
    120 H120       30.7904  -52.1165  -51.9355 H         1 UNK         0.0786 
    121 H121       32.3119  -52.1143  -51.0614 H         1 UNK         0.0786 
    122 H122       33.5489  -49.1561  -51.4575 H         1 UNK         0.3032 
    123 H123       36.2465  -50.0267  -51.7843 H         1 UNK         0.1094 
    124 H124       37.6636  -49.0594  -53.6132 H         1 UNK         0.0794 
    125 H125       36.9655  -50.5983  -54.0832 H         1 UNK         0.0794 
    126 H126       36.2818  -49.1034  -54.7076 H         1 UNK         0.0794 
    127 H127       36.1169  -47.8199  -51.3573 H         1 UNK         0.3016 
@<TRIPOS>BOND
     1    1    2 1    
     2    1   67 1    
     3    1   68 1    
     4    1   69 1    
     5    2    3 2    
     6    2    4 am   BACKBONE|DICT|INTERRES
     7    4    5 1    
     8    4   70 1    
     9    5    6 1    
    10    5   65 1    
    11    5   71 1    
    12    6    7 1    
    13    6   72 1    
    14    6   73 1    
    15    7    8 1    
    16    8    9 1    
    17    8   74 1    
    18    8   75 1    
    19    9   10 ar   
    20    9   14 ar   
    21   10   11 ar   
    22   10   76 1    
    23   11   12 ar   
    24   11   48 1    
    25   12   13 ar   
    26   12   77 1    
    27   13   14 ar   
    28   13   15 1    
    29   14   78 1    
    30   15   16 1    
    31   15   79 1    
    32   15   80 1    
    33   16   17 1    
    34   17   18 1    
    35   17   81 1    
    36   17   82 1    
    37   18   19 1    
    38   18   22 1    
    39   18   83 1    
    40   19   20 am   BACKBONE|DICT|INTERRES
    41   19   21 2    
    42   20   84 1    
    43   20   85 1    
    44   22   23 am   BACKBONE|DICT|INTERRES
    45   22   86 1    
    46   23   24 2    
    47   23   25 1    
    48   25   26 1    
    49   25   27 1    
    50   25   87 1    
    51   26   88 1    
    52   26   89 1    
    53   26   90 1    
    54   27   28 am   BACKBONE|DICT|INTERRES
    55   27   91 1    
    56   28   29 2    
    57   28   30 1    
    58   30   31 1    
    59   30   32 1    
    60   30   92 1    
    61   31   93 1    
    62   31   94 1    
    63   31   95 1    
    64   32   33 am   BACKBONE|DICT|INTERRES
    65   32   96 1    
    66   33   34 2    
    67   33   35 1    
    68   35   36 1    
    69   35   37 1    
    70   35   97 1    
    71   36   98 1    
    72   36   99 1    
    73   36  100 1    
    74   37   38 am   BACKBONE|DICT|INTERRES
    75   37  101 1    
    76   38   39 2    
    77   38   40 1    
    78   40   41 1    
    79   40   42 1    
    80   40  102 1    
    81   41  103 1    
    82   41  104 1    
    83   41  105 1    
    84   42   43 am   BACKBONE|DICT|INTERRES
    85   42  106 1    
    86   43   44 2    
    87   43   45 1    
    88   45   46 1    
    89   45   49 1    
    90   45  107 1    
    91   46   47 1    
    92   46  108 1    
    93   46  109 1    
    94   47   48 1    
    95   48  110 1    
    96   48  111 1    
    97   49   50 am   BACKBONE|DICT|INTERRES
    98   49  112 1    
    99   50   51 2    
   100   50   52 1    
   101   52   53 1    
   102   52   54 1    
   103   52  113 1    
   104   53  114 1    
   105   53  115 1    
   106   53  116 1    
   107   54   55 am   BACKBONE|DICT|INTERRES
   108   54  117 1    
   109   55   56 2    
   110   55   57 1    
   111   57   58 1    
   112   57   59 1    
   113   57  118 1    
   114   58  119 1    
   115   58  120 1    
   116   58  121 1    
   117   59   60 am   BACKBONE|DICT|INTERRES
   118   59  122 1    
   119   60   61 2    
   120   60   62 1    
   121   62   63 1    
   122   62   64 1    
   123   62  123 1    
   124   63  124 1    
   125   63  125 1    
   126   63  126 1    
   127   64   65 am   BACKBONE|DICT|INTERRES
   128   64  127 1    
   129   65   66 2    
@<TRIPOS>SUBSTRUCTURE
     1 UNK         1 GROUP             0       ****    0 ROOT    
