@<TRIPOS>MOLECULE
3R134
127   129    1
SMALL
USER_CHARGES


@<TRIPOS>ATOM
      1 CA         39.2701  -42.5436  -50.3495 C.3       0 UNK        -0.1968 
      2 C          38.3383  -43.6407  -50.8430 C.2       0 UNK         0.4852 
      3 O          38.7978  -44.5967  -51.4705 O.2       0 UNK        -0.5359 
      4 N          37.0334  -43.5107  -50.5689 N.am      1 UNK        -0.4300 
      5 CA         36.0013  -44.4890  -50.9160 C.3       1 UNK         0.0863 
      6 C6         34.6057  -43.8193  -51.0238 C.3       11 UNK        -0.0953 
      7 S7         33.4338  -44.8101  -52.0127 S.3       11 UNK        -0.2369 
      8 C8         33.2708  -43.7582  -53.4862 C.3       11 UNK         0.0226 
      9 C9         32.3224  -44.3541  -54.5159 C.ar      11 UNK        -0.0699 
     10 C10        32.8208  -44.9131  -55.6959 C.ar      11 UNK        -0.0804 
     11 C11        31.9479  -45.3855  -56.6799 C.ar      11 UNK        -0.0871 
     12 C12        30.5682  -45.3089  -56.4692 C.ar      11 UNK        -0.1008 
     13 C13        30.0523  -44.7910  -55.2739 C.ar      11 UNK        -0.0735 
     14 C14        30.9406  -44.3044  -54.3092 C.ar      11 UNK        -0.0945 
     15 C15        28.5503  -44.7116  -54.9961 C.3       11 UNK         0.0169 
     16 S16        27.5540  -45.9996  -55.8232 S.3       11 UNK        -0.2669 
     17 C17        27.1131  -45.1690  -57.3891 C.3       11 UNK        -0.0850 
     18 CA         25.6094  -44.7960  -57.4303 C.3       10 UNK         0.0855 
     19 C          25.3127  -43.8368  -58.6125 C.2       10 UNK         0.5543 
     20 N          25.0342  -44.3406  -59.8074 N.am      10 UNK        -0.7343 
     21 O          25.3321  -42.6207  -58.4401 O.2       10 UNK        -0.5027 
     22 N          24.7641  -45.9986  -57.4665 N.am      10 UNK        -0.4495 
     23 C          23.6548  -46.1844  -56.7398 C.2       10 UNK         0.4903 
     24 O          23.2246  -45.3644  -55.9267 O.2       10 UNK        -0.4860 
     25 CA         22.9129  -47.5248  -56.9350 C.3       9 UNK         0.0227 
     26 CB         21.4492  -47.4866  -56.4445 C.3       9 UNK        -0.1964 
     27 N          23.0044  -48.0431  -58.3051 N.am      9 UNK        -0.4231 
     28 C          22.5293  -47.4717  -59.4250 C.2       9 UNK         0.5014 
     29 O          21.8266  -46.4596  -59.4336 O.2       9 UNK        -0.5270 
     30 CA         22.9303  -48.1334  -60.7642 C.3       8 UNK         0.0284 
     31 CB         22.8862  -47.1440  -61.9488 C.3       8 UNK        -0.1977 
     32 N          24.2321  -48.8175  -60.7168 N.am      8 UNK        -0.4342 
     33 C          25.4077  -48.2738  -60.3713 C.2       8 UNK         0.5039 
     34 O          25.5636  -47.0871  -60.0780 O.2       8 UNK        -0.5547 
     35 CA         26.5965  -49.2335  -60.2326 C.3       7 UNK         0.0281 
     36 CB         27.7692  -48.7898  -61.1225 C.3       7 UNK        -0.1963 
     37 N          27.0458  -49.2948  -58.8407 N.am      7 UNK        -0.4444 
     38 C          26.3157  -49.7056  -57.7940 C.2       7 UNK         0.5104 
     39 O          25.1503  -50.0955  -57.8943 O.2       7 UNK        -0.5100 
     40 CA         26.9663  -49.6418  -56.3963 C.3       6 UNK         0.0396 
     41 CB         26.7466  -50.9453  -55.6022 C.3       6 UNK        -0.1801 
     42 N          28.3846  -49.2482  -56.3823 N.am      6 UNK        -0.4747 
     43 C          29.4400  -49.9207  -56.8716 C.2       6 UNK         0.5012 
     44 O          29.3563  -50.9991  -57.4589 O.2       6 UNK        -0.5003 
     45 CA         30.8244  -49.2624  -56.6986 C.3       5 UNK         0.0782 
     46 C46        31.2006  -48.4663  -57.9726 C.3       11 UNK        -0.0868 
     47 S47        32.8652  -47.7228  -57.8762 S.3       11 UNK        -0.2515 
     48 C48        32.4983  -45.9419  -57.9859 C.3       11 UNK         0.0199 
     49 N          30.9090  -48.4482  -55.4795 N.am      5 UNK        -0.4607 
     50 C          30.9319  -48.9549  -54.2418 C.2       4 UNK         0.5031 
     51 O          30.8489  -50.1598  -53.9908 O.2       4 UNK        -0.5119 
     52 CA         31.0336  -47.9448  -53.0895 C.3       4 UNK         0.0263 
     53 CB         29.6324  -47.5492  -52.5975 C.3       4 UNK        -0.1967 
     54 N          31.7954  -48.5000  -51.9703 N.am      4 UNK        -0.4237 
     55 C          33.1232  -48.6607  -51.9755 C.2       3 UNK         0.4908 
     56 O          33.8633  -48.2949  -52.8934 O.2       3 UNK        -0.5102 
     57 CA         33.7346  -49.3559  -50.7558 C.3       3 UNK         0.0241 
     58 CB         33.8731  -50.8715  -50.9906 C.3       3 UNK        -0.1971 
     59 N          35.0393  -48.7502  -50.5286 N.am      3 UNK        -0.4139 
     60 C          35.7330  -48.7538  -49.3863 C.2       2 UNK         0.5016 
     61 O          35.4032  -49.3804  -48.3785 O.2       2 UNK        -0.5319 
     62 CA         36.9986  -47.8774  -49.3583 C.3       2 UNK         0.0286 
     63 CB         38.2246  -48.6790  -49.8244 C.3       2 UNK        -0.1963 
     64 N          36.8693  -46.6639  -50.1753 N.am      2 UNK        -0.4790 
     65 C          36.0362  -45.6499  -49.9001 C.2       1 UNK         0.5024 
     66 O          35.3465  -45.5967  -48.8799 O.2       1 UNK        -0.4888 
     67 H67        39.7925  -42.0891  -51.1908 H         1 UNK         0.0892 
     68 H68        38.7315  -41.7575  -49.8205 H         1 UNK         0.0892 
     69 H69        40.0138  -42.9608  -49.6713 H         1 UNK         0.0892 
     70 H70        36.7194  -42.7201  -50.0238 H         1 UNK         0.3107 
     71 H71        36.2451  -44.8942  -51.9013 H         1 UNK         0.0773 
     72 H72        34.1686  -43.6231  -50.0431 H         1 UNK         0.0680 
     73 H73        34.7046  -42.8391  -51.4930 H         1 UNK         0.0680 
     74 H74        32.9038  -42.7751  -53.1877 H         1 UNK         0.0650 
     75 H75        34.2587  -43.6004  -53.9221 H         1 UNK         0.0650 
     76 H76        33.8888  -44.9580  -55.8608 H         1 UNK         0.1397 
     77 H77        29.8996  -45.6530  -57.2439 H         1 UNK         0.1363 
     78 H78        30.5579  -43.8767  -53.3923 H         1 UNK         0.1355 
     79 H79        28.1833  -43.7210  -55.2677 H         1 UNK         0.0707 
     80 H80        28.3783  -44.8107  -53.9233 H         1 UNK         0.0707 
     81 H81        27.3647  -45.8308  -58.2202 H         1 UNK         0.1034 
     82 H82        27.7369  -44.2818  -57.5153 H         1 UNK         0.1034 
     83 H83        25.3948  -44.2322  -56.5201 H         1 UNK         0.0482 
     84 H84        25.1022  -45.3449  -59.9640 H         1 UNK         0.3460 
     85 H85        24.8350  -43.7208  -60.5753 H         1 UNK         0.3460 
     86 H86        25.0020  -46.6692  -58.1885 H         1 UNK         0.2989 
     87 H87        23.4431  -48.2470  -56.3124 H         1 UNK         0.0559 
     88 H88        20.9566  -48.4482  -56.5881 H         1 UNK         0.0848 
     89 H89        20.8650  -46.7281  -56.9661 H         1 UNK         0.0848 
     90 H90        21.4001  -47.2556  -55.3797 H         1 UNK         0.0848 
     91 H91        23.5891  -48.8680  -58.4062 H         1 UNK         0.3144 
     92 H92        22.1837  -48.9067  -60.9512 H         1 UNK         0.0727 
     93 H93        23.1571  -47.6326  -62.8846 H         1 UNK         0.0790 
     94 H94        23.5662  -46.3047  -61.7996 H         1 UNK         0.0790 
     95 H95        21.8850  -46.7314  -62.0794 H         1 UNK         0.0790 
     96 H96        24.2042  -49.8128  -60.8947 H         1 UNK         0.3215 
     97 H97        26.2920  -50.2376  -60.5352 H         1 UNK         0.0863 
     98 H98        28.6046  -49.4873  -61.0572 H         1 UNK         0.0808 
     99 H99        28.1352  -47.7997  -60.8464 H         1 UNK         0.0808 
    100 H100       27.4670  -48.7438  -62.1696 H         1 UNK         0.0808 
    101 H101       27.9821  -48.9731  -58.6532 H         1 UNK         0.3118 
    102 H102       26.4366  -48.8495  -55.8659 H         1 UNK         0.0546 
    103 H103       27.1866  -51.8070  -56.1047 H         1 UNK         0.0828 
    104 H104       25.6832  -51.1535  -55.4774 H         1 UNK         0.0828 
    105 H105       27.1812  -50.8800  -54.6048 H         1 UNK         0.0828 
    106 H106       28.5695  -48.3546  -55.9445 H         1 UNK         0.3005 
    107 H107       31.5434  -50.0787  -56.5936 H         1 UNK         0.1257 
    108 H108       31.1943  -49.1267  -58.8423 H         1 UNK         0.0775 
    109 H109       30.4592  -47.6949  -58.1834 H         1 UNK         0.0775 
    110 H110       33.4169  -45.4146  -58.2481 H         1 UNK         0.0840 
    111 H111       31.8051  -45.7558  -58.8078 H         1 UNK         0.0840 
    112 H112       31.0136  -47.4506  -55.6114 H         1 UNK         0.2987 
    113 H113       31.5464  -47.0501  -53.4491 H         1 UNK         0.0785 
    114 H114       29.6855  -46.7713  -51.8355 H         1 UNK         0.0798 
    115 H115       29.0955  -48.4004  -52.1768 H         1 UNK         0.0798 
    116 H116       29.0268  -47.1596  -53.4151 H         1 UNK         0.0798 
    117 H117       31.2591  -48.8689  -51.1985 H         1 UNK         0.3079 
    118 H118       33.1020  -49.1725  -49.8845 H         1 UNK         0.0794 
    119 H119       32.9020  -51.3256  -51.1919 H         1 UNK         0.0786 
    120 H120       34.2913  -51.3741  -50.1183 H         1 UNK         0.0786 
    121 H121       34.5181  -51.0878  -51.8432 H         1 UNK         0.0786 
    122 H122       35.3722  -48.1937  -51.3066 H         1 UNK         0.3032 
    123 H123       37.1613  -47.5724  -48.3219 H         1 UNK         0.1094 
    124 H124       38.3572  -49.5757  -49.2173 H         1 UNK         0.0794 
    125 H125       38.1286  -48.9996  -50.8626 H         1 UNK         0.0794 
    126 H126       39.1391  -48.0920  -49.7368 H         1 UNK         0.0794 
    127 H127       37.4653  -46.5884  -50.9899 H         1 UNK         0.3016 
@<TRIPOS>BOND
     1    1    2 1    
     2    1   67 1    
     3    1   68 1    
     4    1   69 1    
     5    2    3 2    
     6    2    4 am   BACKBONE|DICT|INTERRES
     7    4    5 1    
     8    4   70 1    
     9    5    6 1    
    10    5   65 1    
    11    5   71 1    
    12    6    7 1    
    13    6   72 1    
    14    6   73 1    
    15    7    8 1    
    16    8    9 1    
    17    8   74 1    
    18    8   75 1    
    19    9   10 ar   
    20    9   14 ar   
    21   10   11 ar   
    22   10   76 1    
    23   11   12 ar   
    24   11   48 1    
    25   12   13 ar   
    26   12   77 1    
    27   13   14 ar   
    28   13   15 1    
    29   14   78 1    
    30   15   16 1    
    31   15   79 1    
    32   15   80 1    
    33   16   17 1    
    34   17   18 1    
    35   17   81 1    
    36   17   82 1    
    37   18   19 1    
    38   18   22 1    
    39   18   83 1    
    40   19   20 am   BACKBONE|DICT|INTERRES
    41   19   21 2    
    42   20   84 1    
    43   20   85 1    
    44   22   23 am   BACKBONE|DICT|INTERRES
    45   22   86 1    
    46   23   24 2    
    47   23   25 1    
    48   25   26 1    
    49   25   27 1    
    50   25   87 1    
    51   26   88 1    
    52   26   89 1    
    53   26   90 1    
    54   27   28 am   BACKBONE|DICT|INTERRES
    55   27   91 1    
    56   28   29 2    
    57   28   30 1    
    58   30   31 1    
    59   30   32 1    
    60   30   92 1    
    61   31   93 1    
    62   31   94 1    
    63   31   95 1    
    64   32   33 am   BACKBONE|DICT|INTERRES
    65   32   96 1    
    66   33   34 2    
    67   33   35 1    
    68   35   36 1    
    69   35   37 1    
    70   35   97 1    
    71   36   98 1    
    72   36   99 1    
    73   36  100 1    
    74   37   38 am   BACKBONE|DICT|INTERRES
    75   37  101 1    
    76   38   39 2    
    77   38   40 1    
    78   40   41 1    
    79   40   42 1    
    80   40  102 1    
    81   41  103 1    
    82   41  104 1    
    83   41  105 1    
    84   42   43 am   BACKBONE|DICT|INTERRES
    85   42  106 1    
    86   43   44 2    
    87   43   45 1    
    88   45   46 1    
    89   45   49 1    
    90   45  107 1    
    91   46   47 1    
    92   46  108 1    
    93   46  109 1    
    94   47   48 1    
    95   48  110 1    
    96   48  111 1    
    97   49   50 am   BACKBONE|DICT|INTERRES
    98   49  112 1    
    99   50   51 2    
   100   50   52 1    
   101   52   53 1    
   102   52   54 1    
   103   52  113 1    
   104   53  114 1    
   105   53  115 1    
   106   53  116 1    
   107   54   55 am   BACKBONE|DICT|INTERRES
   108   54  117 1    
   109   55   56 2    
   110   55   57 1    
   111   57   58 1    
   112   57   59 1    
   113   57  118 1    
   114   58  119 1    
   115   58  120 1    
   116   58  121 1    
   117   59   60 am   BACKBONE|DICT|INTERRES
   118   59  122 1    
   119   60   61 2    
   120   60   62 1    
   121   62   63 1    
   122   62   64 1    
   123   62  123 1    
   124   63  124 1    
   125   63  125 1    
   126   63  126 1    
   127   64   65 am   BACKBONE|DICT|INTERRES
   128   64  127 1    
   129   65   66 2    
@<TRIPOS>SUBSTRUCTURE
     1 UNK         1 GROUP             0       ****    0 ROOT    
