@<TRIPOS>MOLECULE
3R134
127   129    1
SMALL
USER_CHARGES


@<TRIPOS>ATOM
      1 CA         33.4312  -44.6861  -47.9665 C.3       0 UNK        -0.1968 
      2 C          33.2218  -44.4063  -49.4471 C.2       0 UNK         0.4852 
      3 O          32.2398  -43.7590  -49.8121 O.2       0 UNK        -0.5359 
      4 N          34.1247  -44.9069  -50.3027 N.am      1 UNK        -0.4300 
      5 CA         34.1696  -44.7599  -51.7676 C.3       1 UNK         0.0863 
      6 C6         34.2285  -43.2779  -52.2370 C.3       11 UNK        -0.0953 
      7 S7         35.3099  -43.0525  -53.6887 S.3       11 UNK        -0.2369 
      8 C8         34.3002  -41.9921  -54.7732 C.3       11 UNK         0.0226 
      9 C9         33.1857  -42.7572  -55.4743 C.ar      11 UNK        -0.0699 
     10 C10        33.4955  -43.7473  -56.4120 C.ar      11 UNK        -0.0804 
     11 C11        32.4801  -44.4443  -57.0740 C.ar      11 UNK        -0.0871 
     12 C12        31.1446  -44.1371  -56.7987 C.ar      11 UNK        -0.1008 
     13 C13        30.8199  -43.1326  -55.8822 C.ar      11 UNK        -0.0735 
     14 C14        31.8456  -42.4487  -55.2203 C.ar      11 UNK        -0.0945 
     15 C15        29.3632  -42.7699  -55.6286 C.3       11 UNK         0.0169 
     16 S16        28.8880  -43.1180  -53.9119 S.3       11 UNK        -0.2669 
     17 C17        27.0722  -42.9593  -53.9747 C.3       11 UNK        -0.0850 
     18 CA         26.3792  -44.3512  -53.9121 C.3       10 UNK         0.0855 
     19 C          24.8721  -44.2877  -53.5101 C.2       10 UNK         0.5543 
     20 N          24.0597  -45.2748  -53.8718 N.am      10 UNK        -0.7343 
     21 O          24.4360  -43.3562  -52.8379 O.2       10 UNK        -0.5027 
     22 N          26.6536  -45.1804  -55.1002 N.am      10 UNK        -0.4495 
     23 C          26.1699  -44.9731  -56.3338 C.2       10 UNK         0.4903 
     24 O          25.5206  -43.9768  -56.6540 O.2       10 UNK        -0.4860 
     25 CA         26.4264  -46.0579  -57.3990 C.3       9 UNK         0.0227 
     26 CB         27.3161  -45.5184  -58.5290 C.3       9 UNK        -0.1964 
     27 N          26.9985  -47.3108  -56.8921 N.am      9 UNK        -0.4231 
     28 C          26.3795  -48.1769  -56.0781 C.2       9 UNK         0.5014 
     29 O          25.2508  -47.9953  -55.6154 O.2       9 UNK        -0.5270 
     30 CA         27.1779  -49.4439  -55.7233 C.3       8 UNK         0.0284 
     31 CB         26.4588  -50.3554  -54.7057 C.3       8 UNK        -0.1977 
     32 N          27.5782  -50.1890  -56.9227 N.am      8 UNK        -0.4342 
     33 C          26.7891  -50.7888  -57.8273 C.2       8 UNK         0.5039 
     34 O          25.5603  -50.8393  -57.7535 O.2       8 UNK        -0.5547 
     35 CA         27.5188  -51.4613  -59.0091 C.3       7 UNK         0.0281 
     36 CB         26.5738  -51.8555  -60.1655 C.3       7 UNK        -0.1963 
     37 N          28.6590  -50.6715  -59.4947 N.am      7 UNK        -0.4444 
     38 C          28.6242  -49.4542  -60.0613 C.2       7 UNK         0.5104 
     39 O          27.5902  -48.8399  -60.3253 O.2       7 UNK        -0.5100 
     40 CA         30.0019  -48.8130  -60.3347 C.3       6 UNK         0.0396 
     41 CB         29.9187  -47.3398  -60.7851 C.3       6 UNK        -0.1801 
     42 N          30.9206  -48.9491  -59.1960 N.am      6 UNK        -0.4747 
     43 C          30.6940  -48.5509  -57.9344 C.2       6 UNK         0.5012 
     44 O          29.6717  -47.9702  -57.5619 O.2       6 UNK        -0.5003 
     45 CA         31.7707  -48.9031  -56.8988 C.3       5 UNK         0.0782 
     46 C46        32.4313  -47.6463  -56.2935 C.3       11 UNK        -0.0868 
     47 S47        33.7006  -46.9315  -57.3900 S.3       11 UNK        -0.2515 
     48 C48        32.8237  -45.5066  -58.1100 C.3       11 UNK         0.0199 
     49 N          31.1888  -49.7476  -55.8585 N.am      5 UNK        -0.4607 
     50 C          30.9302  -51.0538  -55.9941 C.2       4 UNK         0.5031 
     51 O          31.0472  -51.6495  -57.0660 O.2       4 UNK        -0.5119 
     52 CA         30.4401  -51.8262  -54.7500 C.3       4 UNK         0.0263 
     53 CB         31.0797  -53.2270  -54.6542 C.3       4 UNK        -0.1967 
     54 N          30.5873  -51.0990  -53.4799 N.am      4 UNK        -0.4237 
     55 C          31.7167  -50.6601  -52.9002 C.2       3 UNK         0.4908 
     56 O          32.8499  -50.8485  -53.3460 O.2       3 UNK        -0.5102 
     57 CA         31.5290  -49.8345  -51.6126 C.3       3 UNK         0.0241 
     58 CB         32.6395  -50.1305  -50.5883 C.3       3 UNK        -0.1971 
     59 N          31.4630  -48.3824  -51.8267 N.am      3 UNK        -0.4139 
     60 C          30.7067  -47.7119  -52.7099 C.2       2 UNK         0.5016 
     61 O          30.0189  -48.2379  -53.5848 O.2       2 UNK        -0.5319 
     62 CA         30.6512  -46.1838  -52.5543 C.3       2 UNK         0.0286 
     63 CB         29.4495  -45.8240  -51.6646 C.3       2 UNK        -0.1963 
     64 N          31.8497  -45.5660  -51.9808 N.am      2 UNK        -0.4790 
     65 C          33.0786  -45.5621  -52.5126 C.2       1 UNK         0.5024 
     66 O          33.3788  -46.1784  -53.5318 O.2       1 UNK        -0.4888 
     67 H67        33.5216  -43.7490  -47.4180 H         1 UNK         0.0892 
     68 H68        32.5802  -45.2354  -47.5647 H         1 UNK         0.0892 
     69 H69        34.3310  -45.2734  -47.7841 H         1 UNK         0.0892 
     70 H70        34.8846  -45.4544  -49.9218 H         1 UNK         0.3107 
     71 H71        35.1158  -45.2330  -52.0368 H         1 UNK         0.0773 
     72 H72        34.6441  -42.6484  -51.4487 H         1 UNK         0.0680 
     73 H73        33.2308  -42.8795  -52.4331 H         1 UNK         0.0680 
     74 H74        33.9022  -41.1585  -54.1924 H         1 UNK         0.0650 
     75 H75        34.9507  -41.5520  -55.5301 H         1 UNK         0.0650 
     76 H76        34.5304  -43.9814  -56.6215 H         1 UNK         0.1397 
     77 H77        30.3578  -44.6723  -57.3104 H         1 UNK         0.1363 
     78 H78        31.5951  -41.6731  -54.5095 H         1 UNK         0.1355 
     79 H79        29.2083  -41.7110  -55.8397 H         1 UNK         0.0707 
     80 H80        28.7077  -43.3221  -56.3031 H         1 UNK         0.0707 
     81 H81        26.7629  -42.4012  -54.8594 H         1 UNK         0.1034 
     82 H82        26.7854  -42.3451  -53.1195 H         1 UNK         0.1034 
     83 H83        26.8317  -44.8899  -53.0801 H         1 UNK         0.0482 
     84 H84        23.0890  -45.2400  -53.6037 H         1 UNK         0.3460 
     85 H85        24.4082  -46.0539  -54.4131 H         1 UNK         0.3460 
     86 H86        27.1765  -46.0266  -54.9339 H         1 UNK         0.2989 
     87 H87        25.4532  -46.2992  -57.8312 H         1 UNK         0.0559 
     88 H88        26.9441  -44.5664  -58.9103 H         1 UNK         0.0848 
     89 H89        27.3364  -46.2115  -59.3695 H         1 UNK         0.0848 
     90 H90        28.3405  -45.3606  -58.1943 H         1 UNK         0.0848 
     91 H91        27.9436  -47.5363  -57.2028 H         1 UNK         0.3144 
     92 H92        28.1018  -49.1015  -55.2555 H         1 UNK         0.0727 
     93 H93        27.0586  -51.2303  -54.4580 H         1 UNK         0.0790 
     94 H94        25.4963  -50.7049  -55.0803 H         1 UNK         0.0790 
     95 H95        26.2672  -49.8196  -53.7753 H         1 UNK         0.0790 
     96 H96        28.5627  -50.1454  -57.1430 H         1 UNK         0.3215 
     97 H97        27.9410  -52.3847  -58.6088 H         1 UNK         0.0863 
     98 H98        27.1187  -52.3346  -60.9787 H         1 UNK         0.0808 
     99 H99        26.0487  -50.9921  -60.5748 H         1 UNK         0.0808 
    100 H100       25.8156  -52.5615  -59.8248 H         1 UNK         0.0808 
    101 H101       29.5714  -51.0711  -59.3145 H         1 UNK         0.3118 
    102 H102       30.4380  -49.3811  -61.1577 H         1 UNK         0.0546 
    103 H103       29.5468  -46.6934  -59.9922 H         1 UNK         0.0828 
    104 H104       29.2542  -47.2247  -61.6423 H         1 UNK         0.0828 
    105 H105       30.8973  -46.9649  -61.0842 H         1 UNK         0.0828 
    106 H106       31.7843  -49.4361  -59.3956 H         1 UNK         0.3005 
    107 H107       32.5526  -49.4916  -57.3853 H         1 UNK         0.1257 
    108 H108       31.6947  -46.8985  -55.9934 H         1 UNK         0.0775 
    109 H109       32.9520  -47.9261  -55.3769 H         1 UNK         0.0775 
    110 H110       33.4559  -45.0586  -58.8778 H         1 UNK         0.0840 
    111 H111       31.9274  -45.8580  -58.6235 H         1 UNK         0.0840 
    112 H112       30.9618  -49.2911  -54.9801 H         1 UNK         0.2987 
    113 H113       29.3683  -51.9660  -54.8942 H         1 UNK         0.0785 
    114 H114       30.7070  -53.7752  -53.7890 H         1 UNK         0.0798 
    115 H115       32.1658  -53.1717  -54.5743 H         1 UNK         0.0798 
    116 H116       30.8504  -53.8255  -55.5368 H         1 UNK         0.0798 
    117 H117       29.7163  -50.8203  -53.0486 H         1 UNK         0.3079 
    118 H118       30.5812  -50.1332  -51.1604 H         1 UNK         0.0794 
    119 H119       32.7265  -51.2024  -50.4045 H         1 UNK         0.0786 
    120 H120       32.4340  -49.6555  -49.6288 H         1 UNK         0.0786 
    121 H121       33.6125  -49.7797  -50.9351 H         1 UNK         0.0786 
    122 H122       31.9936  -47.8198  -51.1786 H         1 UNK         0.3032 
    123 H123       30.5011  -45.7563  -53.5486 H         1 UNK         0.1094 
    124 H124       29.5493  -46.2451  -50.6634 H         1 UNK         0.0794 
    125 H125       29.3360  -44.7459  -51.5561 H         1 UNK         0.0794 
    126 H126       28.5220  -46.2107  -52.0878 H         1 UNK         0.0794 
    127 H127       31.7182  -44.9890  -51.1531 H         1 UNK         0.3016 
@<TRIPOS>BOND
     1    1    2 1    
     2    1   67 1    
     3    1   68 1    
     4    1   69 1    
     5    2    3 2    
     6    2    4 am   BACKBONE|DICT|INTERRES
     7    4    5 1    
     8    4   70 1    
     9    5    6 1    
    10    5   65 1    
    11    5   71 1    
    12    6    7 1    
    13    6   72 1    
    14    6   73 1    
    15    7    8 1    
    16    8    9 1    
    17    8   74 1    
    18    8   75 1    
    19    9   10 ar   
    20    9   14 ar   
    21   10   11 ar   
    22   10   76 1    
    23   11   12 ar   
    24   11   48 1    
    25   12   13 ar   
    26   12   77 1    
    27   13   14 ar   
    28   13   15 1    
    29   14   78 1    
    30   15   16 1    
    31   15   79 1    
    32   15   80 1    
    33   16   17 1    
    34   17   18 1    
    35   17   81 1    
    36   17   82 1    
    37   18   19 1    
    38   18   22 1    
    39   18   83 1    
    40   19   20 am   BACKBONE|DICT|INTERRES
    41   19   21 2    
    42   20   84 1    
    43   20   85 1    
    44   22   23 am   BACKBONE|DICT|INTERRES
    45   22   86 1    
    46   23   24 2    
    47   23   25 1    
    48   25   26 1    
    49   25   27 1    
    50   25   87 1    
    51   26   88 1    
    52   26   89 1    
    53   26   90 1    
    54   27   28 am   BACKBONE|DICT|INTERRES
    55   27   91 1    
    56   28   29 2    
    57   28   30 1    
    58   30   31 1    
    59   30   32 1    
    60   30   92 1    
    61   31   93 1    
    62   31   94 1    
    63   31   95 1    
    64   32   33 am   BACKBONE|DICT|INTERRES
    65   32   96 1    
    66   33   34 2    
    67   33   35 1    
    68   35   36 1    
    69   35   37 1    
    70   35   97 1    
    71   36   98 1    
    72   36   99 1    
    73   36  100 1    
    74   37   38 am   BACKBONE|DICT|INTERRES
    75   37  101 1    
    76   38   39 2    
    77   38   40 1    
    78   40   41 1    
    79   40   42 1    
    80   40  102 1    
    81   41  103 1    
    82   41  104 1    
    83   41  105 1    
    84   42   43 am   BACKBONE|DICT|INTERRES
    85   42  106 1    
    86   43   44 2    
    87   43   45 1    
    88   45   46 1    
    89   45   49 1    
    90   45  107 1    
    91   46   47 1    
    92   46  108 1    
    93   46  109 1    
    94   47   48 1    
    95   48  110 1    
    96   48  111 1    
    97   49   50 am   BACKBONE|DICT|INTERRES
    98   49  112 1    
    99   50   51 2    
   100   50   52 1    
   101   52   53 1    
   102   52   54 1    
   103   52  113 1    
   104   53  114 1    
   105   53  115 1    
   106   53  116 1    
   107   54   55 am   BACKBONE|DICT|INTERRES
   108   54  117 1    
   109   55   56 2    
   110   55   57 1    
   111   57   58 1    
   112   57   59 1    
   113   57  118 1    
   114   58  119 1    
   115   58  120 1    
   116   58  121 1    
   117   59   60 am   BACKBONE|DICT|INTERRES
   118   59  122 1    
   119   60   61 2    
   120   60   62 1    
   121   62   63 1    
   122   62   64 1    
   123   62  123 1    
   124   63  124 1    
   125   63  125 1    
   126   63  126 1    
   127   64   65 am   BACKBONE|DICT|INTERRES
   128   64  127 1    
   129   65   66 2    
@<TRIPOS>SUBSTRUCTURE
     1 UNK         1 GROUP             0       ****    0 ROOT    
