@<TRIPOS>MOLECULE
3R134
127   129    1
SMALL
USER_CHARGES


@<TRIPOS>ATOM
      1 CA         35.5178  -46.0296  -55.3599 C.3       0 UNK        -0.1968 
      2 C          34.3325  -46.4772  -54.5203 C.2       0 UNK         0.4852 
      3 O          33.7415  -47.5174  -54.8006 O.2       0 UNK        -0.5359 
      4 N          33.9778  -45.7134  -53.4786 N.am      1 UNK        -0.4300 
      5 CA         32.8984  -46.0174  -52.5228 C.3       1 UNK         0.0863 
      6 C6         32.3647  -44.7662  -51.7628 C.3       11 UNK        -0.0953 
      7 S7         33.5894  -43.4281  -51.5216 S.3       11 UNK        -0.2369 
      8 C8         32.6901  -41.9546  -52.1322 C.3       11 UNK         0.0226 
      9 C9         32.1345  -42.0695  -53.5538 C.ar      11 UNK        -0.0699 
     10 C10        32.8615  -42.6851  -54.5793 C.ar      11 UNK        -0.0804 
     11 C11        32.3259  -42.7998  -55.8660 C.ar      11 UNK        -0.0871 
     12 C12        31.0848  -42.2244  -56.1468 C.ar      11 UNK        -0.1008 
     13 C13        30.3380  -41.6208  -55.1325 C.ar      11 UNK        -0.0735 
     14 C14        30.8688  -41.5457  -53.8405 C.ar      11 UNK        -0.0945 
     15 C15        28.9488  -41.0730  -55.4258 C.3       11 UNK         0.0169 
     16 S16        27.7035  -42.4045  -55.4696 S.3       11 UNK        -0.2669 
     17 C17        27.9259  -43.0685  -57.1572 C.3       11 UNK        -0.0850 
     18 CA         26.6026  -43.5948  -57.7620 C.3       10 UNK         0.0855 
     19 C          26.7789  -43.9158  -59.2694 C.2       10 UNK         0.5543 
     20 N          26.2573  -43.0750  -60.1516 N.am      10 UNK        -0.7343 
     21 O          27.4258  -44.8925  -59.6409 O.2       10 UNK        -0.5027 
     22 N          26.1119  -44.7737  -57.0387 N.am      10 UNK        -0.4495 
     23 C          24.8439  -45.1984  -57.0666 C.2       10 UNK         0.4903 
     24 O          23.9195  -44.5736  -57.5909 O.2       10 UNK        -0.4860 
     25 CA         24.5851  -46.5659  -56.4106 C.3       9 UNK         0.0227 
     26 CB         23.1072  -47.0065  -56.4720 C.3       9 UNK        -0.1964 
     27 N          25.4664  -47.6012  -56.9595 N.am      9 UNK        -0.4231 
     28 C          25.5522  -48.0252  -58.2313 C.2       9 UNK         0.5014 
     29 O          24.8260  -47.6294  -59.1441 O.2       9 UNK        -0.5270 
     30 CA         26.6372  -49.0732  -58.5520 C.3       8 UNK         0.0284 
     31 CB         27.8279  -48.4040  -59.2557 C.3       8 UNK        -0.1977 
     32 N          27.1183  -49.8022  -57.3738 N.am      8 UNK        -0.4342 
     33 C          26.3859  -50.6874  -56.6820 C.2       8 UNK         0.5039 
     34 O          25.2588  -51.0550  -57.0160 O.2       8 UNK        -0.5547 
     35 CA         26.9956  -51.2264  -55.3790 C.3       7 UNK         0.0281 
     36 CB         27.8965  -52.4380  -55.6667 C.3       7 UNK        -0.1963 
     37 N          27.7523  -50.2087  -54.6437 N.am      7 UNK        -0.4444 
     38 C          27.2196  -49.1205  -54.0684 C.2       7 UNK         0.5104 
     39 O          26.0159  -48.8659  -54.0689 O.2       7 UNK        -0.5100 
     40 CA         28.1978  -48.1184  -53.4322 C.3       6 UNK         0.0396 
     41 CB         28.7318  -48.6301  -52.0846 C.3       6 UNK        -0.1801 
     42 N          29.3130  -47.8049  -54.3259 N.am      6 UNK        -0.4747 
     43 C          29.2004  -47.0939  -55.4585 C.2       6 UNK         0.5012 
     44 O          28.1497  -46.5721  -55.8361 O.2       6 UNK        -0.5003 
     45 CA         30.4624  -46.9576  -56.3357 C.3       5 UNK         0.0782 
     46 C46        31.1339  -45.5801  -56.1160 C.3       11 UNK        -0.0868 
     47 S47        32.1936  -45.0844  -57.5198 S.3       11 UNK        -0.2515 
     48 C48        33.0705  -43.5782  -56.9436 C.3       11 UNK         0.0199 
     49 N          31.3914  -48.0828  -56.1555 N.am      5 UNK        -0.4607 
     50 C          31.1317  -49.3366  -56.5481 C.2       4 UNK         0.5031 
     51 O          30.0821  -49.6687  -57.1023 O.2       4 UNK        -0.5119 
     52 CA         32.1957  -50.4059  -56.2385 C.3       4 UNK         0.0263 
     53 CB         33.5029  -50.1517  -57.0079 C.3       4 UNK        -0.1967 
     54 N          32.4725  -50.5968  -54.8067 N.am      4 UNK        -0.4237 
     55 C          31.5608  -50.9833  -53.9039 C.2       3 UNK         0.4908 
     56 O          30.3585  -51.0519  -54.1461 O.2       3 UNK        -0.5102 
     57 CA         32.0341  -51.3938  -52.4991 C.3       3 UNK         0.0241 
     58 CB         32.6136  -52.8222  -52.5024 C.3       3 UNK        -0.1971 
     59 N          32.9252  -50.4397  -51.8330 N.am      3 UNK        -0.4139 
     60 C          34.1949  -50.1271  -52.1170 C.2       2 UNK         0.5016 
     61 O          34.8259  -50.5905  -53.0693 O.2       2 UNK        -0.5319 
     62 CA         34.8352  -49.0635  -51.2018 C.3       2 UNK         0.0286 
     63 CB         36.3710  -49.1656  -51.1757 C.3       2 UNK        -0.1963 
     64 N          34.4570  -47.7293  -51.6621 N.am      2 UNK        -0.4790 
     65 C          33.2236  -47.2074  -51.5923 C.2       1 UNK         0.5024 
     66 O          32.3328  -47.6823  -50.8854 O.2       1 UNK        -0.4888 
     67 H67        35.2468  -46.0247  -56.4153 H         1 UNK         0.0892 
     68 H68        35.8569  -45.0301  -55.0887 H         1 UNK         0.0892 
     69 H69        36.3496  -46.7209  -55.2282 H         1 UNK         0.0892 
     70 H70        34.5022  -44.8774  -53.2606 H         1 UNK         0.3107 
     71 H71        32.0577  -46.3897  -53.1110 H         1 UNK         0.0773 
     72 H72        31.9504  -45.0267  -50.7870 H         1 UNK         0.0680 
     73 H73        31.5162  -44.3650  -52.3177 H         1 UNK         0.0680 
     74 H74        33.3633  -41.0976  -52.0927 H         1 UNK         0.0650 
     75 H75        31.8831  -41.7431  -51.4289 H         1 UNK         0.0650 
     76 H76        33.8381  -43.0944  -54.3696 H         1 UNK         0.1397 
     77 H77        30.6795  -42.2995  -57.1458 H         1 UNK         0.1363 
     78 H78        30.2912  -41.0788  -53.0543 H         1 UNK         0.1355 
     79 H79        28.9493  -40.5192  -56.3657 H         1 UNK         0.0707 
     80 H80        28.6601  -40.3558  -54.6559 H         1 UNK         0.0707 
     81 H81        28.3312  -42.2779  -57.7911 H         1 UNK         0.1034 
     82 H82        28.6757  -43.8594  -57.1390 H         1 UNK         0.1034 
     83 H83        25.8576  -42.8017  -57.6657 H         1 UNK         0.0482 
     84 H84        26.3779  -43.2606  -61.1350 H         1 UNK         0.3460 
     85 H85        25.7298  -42.2685  -59.8550 H         1 UNK         0.3460 
     86 H86        26.8188  -45.3669  -56.6131 H         1 UNK         0.2989 
     87 H87        24.8547  -46.4619  -55.3585 H         1 UNK         0.0559 
     88 H88        22.4641  -46.2803  -55.9736 H         1 UNK         0.0848 
     89 H89        22.9603  -47.9653  -55.9747 H         1 UNK         0.0848 
     90 H90        22.7522  -47.1030  -57.4984 H         1 UNK         0.0848 
     91 H91        26.1279  -47.9873  -56.2986 H         1 UNK         0.3144 
     92 H92        26.1993  -49.7995  -59.2399 H         1 UNK         0.0727 
     93 H93        28.2712  -47.6255  -58.6357 H         1 UNK         0.0790 
     94 H94        27.5130  -47.9302  -60.1866 H         1 UNK         0.0790 
     95 H95        28.6063  -49.1257  -59.5043 H         1 UNK         0.0790 
     96 H96        28.0761  -49.6268  -57.0807 H         1 UNK         0.3215 
     97 H97        26.1731  -51.5561  -54.7407 H         1 UNK         0.0863 
     98 H98        28.2657  -52.8845  -54.7433 H         1 UNK         0.0808 
     99 H99        28.7611  -52.1622  -56.2723 H         1 UNK         0.0808 
    100 H100       27.3509  -53.2129  -56.2067 H         1 UNK         0.0808 
    101 H101       28.7558  -50.3713  -54.5593 H         1 UNK         0.3118 
    102 H102       27.6502  -47.1925  -53.2426 H         1 UNK         0.0546 
    103 H103       29.2868  -49.5617  -52.1890 H         1 UNK         0.0828 
    104 H104       27.9120  -48.8187  -51.3904 H         1 UNK         0.0828 
    105 H105       29.3909  -47.8994  -51.6149 H         1 UNK         0.0828 
    106 H106       30.2031  -48.2350  -54.1212 H         1 UNK         0.3005 
    107 H107       30.1099  -46.9915  -57.3683 H         1 UNK         0.1257 
    108 H108       30.3754  -44.8078  -55.9948 H         1 UNK         0.0775 
    109 H109       31.7120  -45.5647  -55.1959 H         1 UNK         0.0775 
    110 H110       34.0595  -43.8661  -56.5884 H         1 UNK         0.0840 
    111 H111       33.2422  -42.9253  -57.8004 H         1 UNK         0.0840 
    112 H112       32.2805  -47.8841  -55.6940 H         1 UNK         0.2987 
    113 H113       31.7917  -51.3529  -56.6027 H         1 UNK         0.0785 
    114 H114       33.3085  -50.0151  -58.0726 H         1 UNK         0.0798 
    115 H115       34.1872  -50.9945  -56.9105 H         1 UNK         0.0798 
    116 H116       34.0225  -49.2613  -56.6565 H         1 UNK         0.0798 
    117 H117       33.4382  -50.5233  -54.4987 H         1 UNK         0.3079 
    118 H118       31.1390  -51.4206  -51.8752 H         1 UNK         0.0794 
    119 H119       32.8666  -53.1497  -51.4940 H         1 UNK         0.0786 
    120 H120       33.5116  -52.9007  -53.1157 H         1 UNK         0.0786 
    121 H121       31.8887  -53.5331  -52.9013 H         1 UNK         0.0786 
    122 H122       32.4879  -49.8988  -51.0959 H         1 UNK         0.3032 
    123 H123       34.4672  -49.2116  -50.1838 H         1 UNK         0.1094 
    124 H124       36.6887  -50.1567  -50.8489 H         1 UNK         0.0794 
    125 H125       36.8081  -48.9918  -52.1600 H         1 UNK         0.0794 
    126 H126       36.8044  -48.4425  -50.4844 H         1 UNK         0.0794 
    127 H127       35.1060  -47.2811  -52.2917 H         1 UNK         0.3016 
@<TRIPOS>BOND
     1    1    2 1    
     2    1   67 1    
     3    1   68 1    
     4    1   69 1    
     5    2    3 2    
     6    2    4 am   BACKBONE|DICT|INTERRES
     7    4    5 1    
     8    4   70 1    
     9    5    6 1    
    10    5   65 1    
    11    5   71 1    
    12    6    7 1    
    13    6   72 1    
    14    6   73 1    
    15    7    8 1    
    16    8    9 1    
    17    8   74 1    
    18    8   75 1    
    19    9   10 ar   
    20    9   14 ar   
    21   10   11 ar   
    22   10   76 1    
    23   11   12 ar   
    24   11   48 1    
    25   12   13 ar   
    26   12   77 1    
    27   13   14 ar   
    28   13   15 1    
    29   14   78 1    
    30   15   16 1    
    31   15   79 1    
    32   15   80 1    
    33   16   17 1    
    34   17   18 1    
    35   17   81 1    
    36   17   82 1    
    37   18   19 1    
    38   18   22 1    
    39   18   83 1    
    40   19   20 am   BACKBONE|DICT|INTERRES
    41   19   21 2    
    42   20   84 1    
    43   20   85 1    
    44   22   23 am   BACKBONE|DICT|INTERRES
    45   22   86 1    
    46   23   24 2    
    47   23   25 1    
    48   25   26 1    
    49   25   27 1    
    50   25   87 1    
    51   26   88 1    
    52   26   89 1    
    53   26   90 1    
    54   27   28 am   BACKBONE|DICT|INTERRES
    55   27   91 1    
    56   28   29 2    
    57   28   30 1    
    58   30   31 1    
    59   30   32 1    
    60   30   92 1    
    61   31   93 1    
    62   31   94 1    
    63   31   95 1    
    64   32   33 am   BACKBONE|DICT|INTERRES
    65   32   96 1    
    66   33   34 2    
    67   33   35 1    
    68   35   36 1    
    69   35   37 1    
    70   35   97 1    
    71   36   98 1    
    72   36   99 1    
    73   36  100 1    
    74   37   38 am   BACKBONE|DICT|INTERRES
    75   37  101 1    
    76   38   39 2    
    77   38   40 1    
    78   40   41 1    
    79   40   42 1    
    80   40  102 1    
    81   41  103 1    
    82   41  104 1    
    83   41  105 1    
    84   42   43 am   BACKBONE|DICT|INTERRES
    85   42  106 1    
    86   43   44 2    
    87   43   45 1    
    88   45   46 1    
    89   45   49 1    
    90   45  107 1    
    91   46   47 1    
    92   46  108 1    
    93   46  109 1    
    94   47   48 1    
    95   48  110 1    
    96   48  111 1    
    97   49   50 am   BACKBONE|DICT|INTERRES
    98   49  112 1    
    99   50   51 2    
   100   50   52 1    
   101   52   53 1    
   102   52   54 1    
   103   52  113 1    
   104   53  114 1    
   105   53  115 1    
   106   53  116 1    
   107   54   55 am   BACKBONE|DICT|INTERRES
   108   54  117 1    
   109   55   56 2    
   110   55   57 1    
   111   57   58 1    
   112   57   59 1    
   113   57  118 1    
   114   58  119 1    
   115   58  120 1    
   116   58  121 1    
   117   59   60 am   BACKBONE|DICT|INTERRES
   118   59  122 1    
   119   60   61 2    
   120   60   62 1    
   121   62   63 1    
   122   62   64 1    
   123   62  123 1    
   124   63  124 1    
   125   63  125 1    
   126   63  126 1    
   127   64   65 am   BACKBONE|DICT|INTERRES
   128   64  127 1    
   129   65   66 2    
@<TRIPOS>SUBSTRUCTURE
     1 UNK         1 GROUP             0       ****    0 ROOT    
