@<TRIPOS>MOLECULE
3R134
127   129    1
SMALL
USER_CHARGES


@<TRIPOS>ATOM
      1 CA         37.5734  -45.2519  -50.2603 C.3       0 UNK        -0.1968 
      2 C          36.2986  -45.3174  -51.0890 C.2       0 UNK         0.4852 
      3 O          35.2973  -44.7179  -50.6986 O.2       0 UNK        -0.5359 
      4 N          36.3403  -46.0585  -52.2085 N.am      1 UNK        -0.4300 
      5 CA         35.2938  -46.2648  -53.2277 C.3       1 UNK         0.0863 
      6 C6         35.2193  -45.1437  -54.3062 C.3       11 UNK        -0.0953 
      7 S7         34.7558  -43.4849  -53.7081 S.3       11 UNK        -0.2369 
      8 C8         33.8572  -42.8064  -55.1415 C.3       11 UNK         0.0226 
      9 C9         32.4113  -43.2821  -55.2285 C.ar      11 UNK        -0.0699 
     10 C10        31.5496  -43.1224  -54.1378 C.ar      11 UNK        -0.0804 
     11 C11        30.2062  -43.4987  -54.2244 C.ar      11 UNK        -0.0871 
     12 C12        29.7204  -44.0052  -55.4329 C.ar      11 UNK        -0.1008 
     13 C13        30.5750  -44.2059  -56.5202 C.ar      11 UNK        -0.0735 
     14 C14        31.9202  -43.8399  -56.4140 C.ar      11 UNK        -0.0945 
     15 C15        30.0481  -44.8630  -57.7876 C.3       11 UNK         0.0169 
     16 S16        29.6330  -43.6787  -59.1101 S.3       11 UNK        -0.2669 
     17 C17        28.3838  -42.5764  -58.3505 C.3       11 UNK        -0.0850 
     18 CA         26.9139  -43.0659  -58.4543 C.3       10 UNK         0.0855 
     19 C          26.3699  -43.0702  -59.9144 C.2       10 UNK         0.5543 
     20 N          25.8094  -44.1622  -60.4222 N.am      10 UNK        -0.7343 
     21 O          26.4397  -42.0502  -60.5960 O.2       10 UNK        -0.5027 
     22 N          26.7130  -44.3227  -57.7204 N.am      10 UNK        -0.4495 
     23 C          25.5841  -44.6824  -57.0990 C.2       10 UNK         0.4903 
     24 O          24.5946  -43.9545  -57.0046 O.2       10 UNK        -0.4860 
     25 CA         25.5670  -46.0944  -56.4748 C.3       9 UNK         0.0227 
     26 CB         24.1371  -46.6094  -56.2096 C.3       9 UNK        -0.1964 
     27 N          26.3379  -47.1050  -57.2200 N.am      9 UNK        -0.4231 
     28 C          26.1942  -47.4266  -58.5157 C.2       9 UNK         0.5014 
     29 O          25.4083  -46.8611  -59.2770 O.2       9 UNK        -0.5270 
     30 CA         27.0889  -48.5361  -59.0839 C.3       8 UNK         0.0284 
     31 CB         28.2859  -47.9166  -59.8263 C.3       8 UNK        -0.1977 
     32 N          27.5901  -49.4650  -58.0663 N.am      8 UNK        -0.4342 
     33 C          27.1004  -50.6941  -57.8586 C.2       8 UNK         0.5039 
     34 O          26.0762  -51.1235  -58.3920 O.2       8 UNK        -0.5547 
     35 CA         27.9207  -51.6280  -56.9534 C.3       7 UNK         0.0281 
     36 CB         29.2705  -51.9723  -57.6064 C.3       7 UNK        -0.1963 
     37 N          28.1466  -51.0958  -55.6096 N.am      7 UNK        -0.4444 
     38 C          27.2242  -51.0781  -54.6376 C.2       7 UNK         0.5104 
     39 O          26.0662  -51.4715  -54.7818 O.2       7 UNK        -0.5100 
     40 CA         27.6698  -50.5413  -53.2637 C.3       6 UNK         0.0396 
     41 CB         28.4137  -51.6248  -52.4672 C.3       6 UNK        -0.1801 
     42 N          28.5052  -49.3432  -53.3638 N.am      6 UNK        -0.4747 
     43 C          28.0686  -48.1646  -53.8271 C.2       6 UNK         0.5012 
     44 O          26.8994  -47.9565  -54.1461 O.2       6 UNK        -0.5003 
     45 CA         29.1154  -47.0521  -54.0312 C.3       5 UNK         0.0782 
     46 C46        29.3424  -46.1990  -52.7554 C.3       11 UNK        -0.0868 
     47 S47        28.1949  -44.7787  -52.7032 S.3       11 UNK        -0.2515 
     48 C48        29.2985  -43.3495  -53.0045 C.3       11 UNK         0.0199 
     49 N          30.3658  -47.5598  -54.5980 N.am      5 UNK        -0.4607 
     50 C          30.4741  -48.0977  -55.8201 C.2       4 UNK         0.5031 
     51 O          29.5430  -48.1633  -56.6213 O.2       4 UNK        -0.5119 
     52 CA         31.8298  -48.7133  -56.1950 C.3       4 UNK         0.0263 
     53 CB         32.7812  -47.6446  -56.7540 C.3       4 UNK        -0.1967 
     54 N          32.4468  -49.3953  -55.0554 N.am      4 UNK        -0.4237 
     55 C          31.9680  -50.5230  -54.5085 C.2       3 UNK         0.4908 
     56 O          30.9993  -51.1386  -54.9514 O.2       3 UNK        -0.5102 
     57 CA         32.6525  -51.0202  -53.2246 C.3       3 UNK         0.0241 
     58 CB         33.9044  -51.8458  -53.5605 C.3       3 UNK        -0.1971 
     59 N          33.0090  -49.9258  -52.3182 N.am      3 UNK        -0.4139 
     60 C          32.1216  -49.1342  -51.6975 C.2       2 UNK         0.5016 
     61 O          30.9025  -49.2797  -51.7747 O.2       2 UNK        -0.5319 
     62 CA         32.6903  -47.9480  -50.9012 C.3       2 UNK         0.0286 
     63 CB         33.0000  -48.3634  -49.4548 C.3       2 UNK        -0.1963 
     64 N          33.8902  -47.3655  -51.5129 N.am      2 UNK        -0.4790 
     65 C          33.9199  -46.7574  -52.7090 C.2       1 UNK         0.5024 
     66 O          32.9227  -46.6588  -53.4248 O.2       1 UNK        -0.4888 
     67 H67        37.3897  -45.6363  -49.2573 H         1 UNK         0.0892 
     68 H68        38.3817  -45.8335  -50.7033 H         1 UNK         0.0892 
     69 H69        37.9092  -44.2190  -50.1727 H         1 UNK         0.0892 
     70 H70        37.2102  -46.5280  -52.4198 H         1 UNK         0.3107 
     71 H71        35.6565  -47.1393  -53.7701 H         1 UNK         0.0773 
     72 H72        34.5360  -45.4340  -55.1050 H         1 UNK         0.0680 
     73 H73        36.1934  -45.0481  -54.7876 H         1 UNK         0.0680 
     74 H74        34.4068  -43.0439  -56.0537 H         1 UNK         0.0650 
     75 H75        33.8542  -41.7187  -55.0613 H         1 UNK         0.0650 
     76 H76        31.9321  -42.7031  -53.2174 H         1 UNK         0.1397 
     77 H77        28.6761  -44.2693  -55.5172 H         1 UNK         0.1363 
     78 H78        32.5793  -43.9809  -57.2595 H         1 UNK         0.1355 
     79 H79        29.1826  -45.4838  -57.5588 H         1 UNK         0.0707 
     80 H80        30.8013  -45.5498  -58.1741 H         1 UNK         0.0707 
     81 H81        28.6386  -42.3906  -57.3081 H         1 UNK         0.1034 
     82 H82        28.4781  -41.5997  -58.8288 H         1 UNK         0.1034 
     83 H83        26.3171  -42.3041  -57.9491 H         1 UNK         0.0482 
     84 H84        25.4584  -44.1367  -61.3660 H         1 UNK         0.3460 
     85 H85        25.7143  -45.0126  -59.8766 H         1 UNK         0.3460 
     86 H86        27.4555  -44.9986  -57.8016 H         1 UNK         0.2989 
     87 H87        26.0584  -45.9785  -55.5093 H         1 UNK         0.0559 
     88 H88        23.5660  -46.7075  -57.1334 H         1 UNK         0.0848 
     89 H89        23.5879  -45.9311  -55.5555 H         1 UNK         0.0848 
     90 H90        24.1544  -47.5829  -55.7192 H         1 UNK         0.0848 
     91 H91        27.0080  -47.6330  -56.6765 H         1 UNK         0.3144 
     92 H92        26.4927  -49.0795  -59.8201 H         1 UNK         0.0727 
     93 H93        28.9437  -47.3672  -59.1531 H         1 UNK         0.0790 
     94 H94        27.9528  -47.2195  -60.5968 H         1 UNK         0.0790 
     95 H95        28.8821  -48.6833  -60.3210 H         1 UNK         0.0790 
     96 H96        28.4122  -49.1589  -57.5447 H         1 UNK         0.3215 
     97 H97        27.3600  -52.5605  -56.8554 H         1 UNK         0.0863 
     98 H98        29.8072  -52.7254  -57.0290 H         1 UNK         0.0808 
     99 H99        29.9165  -51.0982  -57.6922 H         1 UNK         0.0808 
    100 H100       29.1288  -52.3745  -58.6104 H         1 UNK         0.0808 
    101 H101       29.0972  -50.8202  -55.3792 H         1 UNK         0.3118 
    102 H102       26.7708  -50.2734  -52.7045 H         1 UNK         0.0546 
    103 H103       27.7927  -52.5129  -52.3434 H         1 UNK         0.0828 
    104 H104       28.6789  -51.2719  -51.4704 H         1 UNK         0.0828 
    105 H105       29.3320  -51.9362  -52.9652 H         1 UNK         0.0828 
    106 H106       29.4678  -49.4169  -53.0423 H         1 UNK         0.3005 
    107 H107       28.6939  -46.4130  -54.8061 H         1 UNK         0.1257 
    108 H108       30.3642  -45.8177  -52.7232 H         1 UNK         0.0775 
    109 H109       29.2289  -46.7912  -51.8452 H         1 UNK         0.0775 
    110 H110       28.6878  -42.4546  -53.1293 H         1 UNK         0.0840 
    111 H111       29.8957  -43.1907  -52.1051 H         1 UNK         0.0840 
    112 H112       31.1999  -47.4698  -54.0273 H         1 UNK         0.2987 
    113 H113       31.6579  -49.4555  -56.9772 H         1 UNK         0.0785 
    114 H114       32.8898  -46.8012  -56.0727 H         1 UNK         0.0798 
    115 H115       32.4033  -47.2500  -57.6973 H         1 UNK         0.0798 
    116 H116       33.7726  -48.0524  -56.9509 H         1 UNK         0.0798 
    117 H117       33.2196  -48.9269  -54.6074 H         1 UNK         0.3079 
    118 H118       31.9448  -51.6691  -52.7039 H         1 UNK         0.0794 
    119 H119       34.6653  -51.2467  -54.0623 H         1 UNK         0.0786 
    120 H120       33.6558  -52.6773  -54.2217 H         1 UNK         0.0786 
    121 H121       34.3509  -52.2721  -52.6618 H         1 UNK         0.0786 
    122 H122       33.9917  -49.7369  -52.1853 H         1 UNK         0.3032 
    123 H123       31.9195  -47.1741  -50.8784 H         1 UNK         0.1094 
    124 H124       33.3205  -47.5093  -48.8576 H         1 UNK         0.0794 
    125 H125       32.1150  -48.7802  -48.9716 H         1 UNK         0.0794 
    126 H126       33.7841  -49.1202  -49.4080 H         1 UNK         0.0794 
    127 H127       34.7435  -47.3963  -50.9738 H         1 UNK         0.3016 
@<TRIPOS>BOND
     1    1    2 1    
     2    1   67 1    
     3    1   68 1    
     4    1   69 1    
     5    2    3 2    
     6    2    4 am   BACKBONE|DICT|INTERRES
     7    4    5 1    
     8    4   70 1    
     9    5    6 1    
    10    5   65 1    
    11    5   71 1    
    12    6    7 1    
    13    6   72 1    
    14    6   73 1    
    15    7    8 1    
    16    8    9 1    
    17    8   74 1    
    18    8   75 1    
    19    9   10 ar   
    20    9   14 ar   
    21   10   11 ar   
    22   10   76 1    
    23   11   12 ar   
    24   11   48 1    
    25   12   13 ar   
    26   12   77 1    
    27   13   14 ar   
    28   13   15 1    
    29   14   78 1    
    30   15   16 1    
    31   15   79 1    
    32   15   80 1    
    33   16   17 1    
    34   17   18 1    
    35   17   81 1    
    36   17   82 1    
    37   18   19 1    
    38   18   22 1    
    39   18   83 1    
    40   19   20 am   BACKBONE|DICT|INTERRES
    41   19   21 2    
    42   20   84 1    
    43   20   85 1    
    44   22   23 am   BACKBONE|DICT|INTERRES
    45   22   86 1    
    46   23   24 2    
    47   23   25 1    
    48   25   26 1    
    49   25   27 1    
    50   25   87 1    
    51   26   88 1    
    52   26   89 1    
    53   26   90 1    
    54   27   28 am   BACKBONE|DICT|INTERRES
    55   27   91 1    
    56   28   29 2    
    57   28   30 1    
    58   30   31 1    
    59   30   32 1    
    60   30   92 1    
    61   31   93 1    
    62   31   94 1    
    63   31   95 1    
    64   32   33 am   BACKBONE|DICT|INTERRES
    65   32   96 1    
    66   33   34 2    
    67   33   35 1    
    68   35   36 1    
    69   35   37 1    
    70   35   97 1    
    71   36   98 1    
    72   36   99 1    
    73   36  100 1    
    74   37   38 am   BACKBONE|DICT|INTERRES
    75   37  101 1    
    76   38   39 2    
    77   38   40 1    
    78   40   41 1    
    79   40   42 1    
    80   40  102 1    
    81   41  103 1    
    82   41  104 1    
    83   41  105 1    
    84   42   43 am   BACKBONE|DICT|INTERRES
    85   42  106 1    
    86   43   44 2    
    87   43   45 1    
    88   45   46 1    
    89   45   49 1    
    90   45  107 1    
    91   46   47 1    
    92   46  108 1    
    93   46  109 1    
    94   47   48 1    
    95   48  110 1    
    96   48  111 1    
    97   49   50 am   BACKBONE|DICT|INTERRES
    98   49  112 1    
    99   50   51 2    
   100   50   52 1    
   101   52   53 1    
   102   52   54 1    
   103   52  113 1    
   104   53  114 1    
   105   53  115 1    
   106   53  116 1    
   107   54   55 am   BACKBONE|DICT|INTERRES
   108   54  117 1    
   109   55   56 2    
   110   55   57 1    
   111   57   58 1    
   112   57   59 1    
   113   57  118 1    
   114   58  119 1    
   115   58  120 1    
   116   58  121 1    
   117   59   60 am   BACKBONE|DICT|INTERRES
   118   59  122 1    
   119   60   61 2    
   120   60   62 1    
   121   62   63 1    
   122   62   64 1    
   123   62  123 1    
   124   63  124 1    
   125   63  125 1    
   126   63  126 1    
   127   64   65 am   BACKBONE|DICT|INTERRES
   128   64  127 1    
   129   65   66 2    
@<TRIPOS>SUBSTRUCTURE
     1 UNK         1 GROUP             0       ****    0 ROOT    
