@<TRIPOS>MOLECULE
3R134
127   129    1
SMALL
USER_CHARGES


@<TRIPOS>ATOM
      1 CA         30.7717  -44.0600  -49.9028 C.3       0 UNK        -0.1968 
      2 C          31.7631  -44.6456  -50.8978 C.2       0 UNK         0.4852 
      3 O          31.3463  -45.3195  -51.8378 O.2       0 UNK        -0.5359 
      4 N          33.0624  -44.3868  -50.6916 N.am      1 UNK        -0.4300 
      5 CA         34.1892  -44.8382  -51.5222 C.3       1 UNK         0.0863 
      6 C6         34.2020  -44.2222  -52.9527 C.3       11 UNK        -0.0953 
      7 S7         34.0840  -42.3972  -52.9211 S.3       11 UNK        -0.2369 
      8 C8         33.5926  -41.9909  -54.6324 C.3       11 UNK         0.0226 
      9 C9         32.3685  -42.7613  -55.1148 C.ar      11 UNK        -0.0699 
     10 C10        32.4248  -43.4693  -56.3196 C.ar      11 UNK        -0.0804 
     11 C11        31.3344  -44.2315  -56.7485 C.ar      11 UNK        -0.0871 
     12 C12        30.1795  -44.2749  -55.9647 C.ar      11 UNK        -0.1008 
     13 C13        30.0953  -43.5476  -54.7747 C.ar      11 UNK        -0.0735 
     14 C14        31.1915  -42.7874  -54.3577 C.ar      11 UNK        -0.0945 
     15 C15        28.8354  -43.6128  -53.9221 C.3       11 UNK         0.0169 
     16 S16        27.7919  -42.1287  -54.0976 S.3       11 UNK        -0.2669 
     17 C17        27.1388  -42.3223  -55.7923 C.3       11 UNK        -0.0850 
     18 CA         25.7936  -43.1071  -55.8433 C.3       10 UNK         0.0855 
     19 C          24.5473  -42.1942  -55.6923 C.2       10 UNK         0.5543 
     20 N          24.4300  -41.4850  -54.5792 N.am      10 UNK        -0.7343 
     21 O          23.6902  -42.1164  -56.5720 O.2       10 UNK        -0.5027 
     22 N          25.6991  -43.9390  -57.0492 N.am      10 UNK        -0.4495 
     23 C          26.3056  -45.1171  -57.2175 C.2       10 UNK         0.4903 
     24 O          26.9912  -45.6592  -56.3533 O.2       10 UNK        -0.4860 
     25 CA         26.1453  -45.7784  -58.5913 C.3       9 UNK         0.0227 
     26 CB         26.8718  -44.9633  -59.6808 C.3       9 UNK        -0.1964 
     27 N          26.6854  -47.1380  -58.5582 N.am      9 UNK        -0.4231 
     28 C          26.3464  -48.1193  -59.4034 C.2       9 UNK         0.5014 
     29 O          25.4923  -47.9974  -60.2832 O.2       9 UNK        -0.5270 
     30 CA         27.0859  -49.4590  -59.2707 C.3       8 UNK         0.0284 
     31 CB         28.4297  -49.4091  -60.0179 C.3       8 UNK        -0.1977 
     32 N          27.3170  -49.8376  -57.8765 N.am      8 UNK        -0.4342 
     33 C          26.4733  -50.5746  -57.1411 C.2       8 UNK         0.5039 
     34 O          25.3888  -50.9865  -57.5559 O.2       8 UNK        -0.5547 
     35 CA         26.9102  -50.9487  -55.7119 C.3       7 UNK         0.0281 
     36 CB         27.5334  -52.3541  -55.6986 C.3       7 UNK        -0.1963 
     37 N          27.8590  -50.0015  -55.1265 N.am      7 UNK        -0.4444 
     38 C          27.5452  -48.7650  -54.7192 C.2       7 UNK         0.5104 
     39 O          26.3940  -48.3300  -54.6911 O.2       7 UNK        -0.5100 
     40 CA         28.7142  -47.8606  -54.2851 C.3       6 UNK         0.0396 
     41 CB         28.9704  -48.0060  -52.7783 C.3       6 UNK        -0.1801 
     42 N          29.9622  -48.1057  -55.0177 N.am      6 UNK        -0.4747 
     43 C          30.1179  -48.0007  -56.3472 C.2       6 UNK         0.5012 
     44 O          29.2118  -47.7053  -57.1254 O.2       6 UNK        -0.5003 
     45 CA         31.5053  -48.3595  -56.9062 C.3       5 UNK         0.0782 
     46 C46        32.5354  -47.2228  -56.6736 C.3       11 UNK        -0.0868 
     47 S47        32.7843  -46.1793  -58.1476 S.3       11 UNK        -0.2515 
     48 C48        31.3910  -45.0059  -58.0592 C.3       11 UNK         0.0199 
     49 N          31.9499  -49.6320  -56.3381 N.am      5 UNK        -0.4607 
     50 C          31.4987  -50.8328  -56.7253 C.2       4 UNK         0.5031 
     51 O          30.7171  -50.9995  -57.6608 O.2       4 UNK        -0.5119 
     52 CA         31.9830  -52.0544  -55.9235 C.3       4 UNK         0.0263 
     53 CB         33.2339  -52.6631  -56.5768 C.3       4 UNK        -0.1967 
     54 N          32.2692  -51.7461  -54.5195 N.am      4 UNK        -0.4237 
     55 C          31.3425  -51.3858  -53.6202 C.2       3 UNK         0.4908 
     56 O          30.1385  -51.3274  -53.8659 O.2       3 UNK        -0.5102 
     57 CA         31.8486  -50.9723  -52.2275 C.3       3 UNK         0.0241 
     58 CB         31.9720  -52.2017  -51.3133 C.3       3 UNK        -0.1971 
     59 N          33.1216  -50.2400  -52.2444 N.am      3 UNK        -0.4139 
     60 C          33.3345  -49.0840  -52.8892 C.2       2 UNK         0.5016 
     61 O          32.4995  -48.5373  -53.6140 O.2       2 UNK        -0.5319 
     62 CA         34.7352  -48.4677  -52.7568 C.3       2 UNK         0.0286 
     63 CB         35.5920  -48.8141  -53.9853 C.3       2 UNK        -0.1963 
     64 N          34.6499  -47.0124  -52.6230 N.am      2 UNK        -0.4790 
     65 C          34.3178  -46.3811  -51.4880 C.2       1 UNK         0.5024 
     66 O          34.1487  -46.9730  -50.4181 O.2       1 UNK        -0.4888 
     67 H67        30.1839  -44.8564  -49.4471 H         1 UNK         0.0892 
     68 H68        31.2693  -43.5069  -49.1065 H         1 UNK         0.0892 
     69 H69        30.0887  -43.3806  -50.4121 H         1 UNK         0.0892 
     70 H70        33.3275  -43.8476  -49.8799 H         1 UNK         0.3107 
     71 H71        35.0836  -44.4740  -51.0145 H         1 UNK         0.0773 
     72 H72        33.3801  -44.6330  -53.5405 H         1 UNK         0.0680 
     73 H73        35.1231  -44.4778  -53.4790 H         1 UNK         0.0680 
     74 H74        34.4470  -42.1766  -55.2850 H         1 UNK         0.0650 
     75 H75        33.3836  -40.9223  -54.6938 H         1 UNK         0.0650 
     76 H76        33.3252  -43.4466  -56.9182 H         1 UNK         0.1397 
     77 H77        29.3421  -44.8780  -56.2828 H         1 UNK         0.1363 
     78 H78        31.1386  -42.2402  -53.4266 H         1 UNK         0.1355 
     79 H79        28.2453  -44.4954  -54.1704 H         1 UNK         0.0707 
     80 H80        29.1179  -43.7244  -52.8744 H         1 UNK         0.0707 
     81 H81        27.0335  -41.3336  -56.2430 H         1 UNK         0.1034 
     82 H82        27.8993  -42.8171  -56.3950 H         1 UNK         0.1034 
     83 H83        25.7491  -43.7949  -54.9961 H         1 UNK         0.0482 
     84 H84        23.6308  -40.8829  -54.4572 H         1 UNK         0.3460 
     85 H85        25.1443  -41.5290  -53.8679 H         1 UNK         0.3460 
     86 H86        25.0980  -43.5660  -57.7724 H         1 UNK         0.2989 
     87 H87        25.0775  -45.8214  -58.8157 H         1 UNK         0.0559 
     88 H88        27.9423  -44.8964  -59.4815 H         1 UNK         0.0848 
     89 H89        26.7441  -45.4109  -60.6665 H         1 UNK         0.0848 
     90 H90        26.4867  -43.9450  -59.7423 H         1 UNK         0.0848 
     91 H91        27.3926  -47.3012  -57.8433 H         1 UNK         0.3144 
     92 H92        26.4731  -50.2246  -59.7519 H         1 UNK         0.0727 
     93 H93        28.9506  -50.3652  -59.9600 H         1 UNK         0.0790 
     94 H94        29.0936  -48.6435  -59.6158 H         1 UNK         0.0790 
     95 H95        28.2785  -49.1849  -61.0746 H         1 UNK         0.0790 
     96 H96        28.1618  -49.4804  -57.4456 H         1 UNK         0.3215 
     97 H97        26.0143  -50.9655  -55.0875 H         1 UNK         0.0863 
     98 H98        27.7757  -52.6709  -54.6839 H         1 UNK         0.0808 
     99 H99        28.4499  -52.3933  -56.2891 H         1 UNK         0.0808 
    100 H100       26.8450  -53.0921  -56.1126 H         1 UNK         0.0808 
    101 H101       28.8133  -50.3235  -54.9956 H         1 UNK         0.3118 
    102 H102       28.4265  -46.8279  -54.4813 H         1 UNK         0.0546 
    103 H103       29.2125  -49.0339  -52.5096 H         1 UNK         0.0828 
    104 H104       28.0887  -47.7178  -52.2048 H         1 UNK         0.0828 
    105 H105       29.7932  -47.3709  -52.4515 H         1 UNK         0.0828 
    106 H106       30.7819  -48.3317  -54.4580 H         1 UNK         0.3005 
    107 H107       31.3873  -48.5118  -57.9821 H         1 UNK         0.1257 
    108 H108       33.5147  -47.6490  -56.4543 H         1 UNK         0.0775 
    109 H109       32.3000  -46.6088  -55.8014 H         1 UNK         0.0775 
    110 H110       31.4810  -44.2950  -58.8815 H         1 UNK         0.0840 
    111 H111       30.4609  -45.5493  -58.2322 H         1 UNK         0.0840 
    112 H112       32.5186  -49.5671  -55.5041 H         1 UNK         0.2987 
    113 H113       31.1850  -52.7998  -55.9485 H         1 UNK         0.0785 
    114 H114       33.0408  -52.9248  -57.6183 H         1 UNK         0.0798 
    115 H115       33.5436  -53.5762  -56.0680 H         1 UNK         0.0798 
    116 H116       34.0753  -51.9689  -56.5662 H         1 UNK         0.0798 
    117 H117       33.2358  -51.7749  -54.2299 H         1 UNK         0.3079 
    118 H118       31.1006  -50.3050  -51.7959 H         1 UNK         0.0794 
    119 H119       32.2235  -51.9139  -50.2922 H         1 UNK         0.0786 
    120 H120       32.7368  -52.8947  -51.6660 H         1 UNK         0.0786 
    121 H121       31.0300  -52.7507  -51.2692 H         1 UNK         0.0786 
    122 H122       33.8682  -50.6285  -51.6858 H         1 UNK         0.3032 
    123 H123       35.2235  -48.8755  -51.8684 H         1 UNK         0.1094 
    124 H124       35.1611  -48.4208  -54.9060 H         1 UNK         0.0794 
    125 H125       36.6005  -48.4109  -53.8902 H         1 UNK         0.0794 
    126 H126       35.6876  -49.8941  -54.1053 H         1 UNK         0.0794 
    127 H127       34.7252  -46.4752  -53.4739 H         1 UNK         0.3016 
@<TRIPOS>BOND
     1    1    2 1    
     2    1   67 1    
     3    1   68 1    
     4    1   69 1    
     5    2    3 2    
     6    2    4 am   BACKBONE|DICT|INTERRES
     7    4    5 1    
     8    4   70 1    
     9    5    6 1    
    10    5   65 1    
    11    5   71 1    
    12    6    7 1    
    13    6   72 1    
    14    6   73 1    
    15    7    8 1    
    16    8    9 1    
    17    8   74 1    
    18    8   75 1    
    19    9   10 ar   
    20    9   14 ar   
    21   10   11 ar   
    22   10   76 1    
    23   11   12 ar   
    24   11   48 1    
    25   12   13 ar   
    26   12   77 1    
    27   13   14 ar   
    28   13   15 1    
    29   14   78 1    
    30   15   16 1    
    31   15   79 1    
    32   15   80 1    
    33   16   17 1    
    34   17   18 1    
    35   17   81 1    
    36   17   82 1    
    37   18   19 1    
    38   18   22 1    
    39   18   83 1    
    40   19   20 am   BACKBONE|DICT|INTERRES
    41   19   21 2    
    42   20   84 1    
    43   20   85 1    
    44   22   23 am   BACKBONE|DICT|INTERRES
    45   22   86 1    
    46   23   24 2    
    47   23   25 1    
    48   25   26 1    
    49   25   27 1    
    50   25   87 1    
    51   26   88 1    
    52   26   89 1    
    53   26   90 1    
    54   27   28 am   BACKBONE|DICT|INTERRES
    55   27   91 1    
    56   28   29 2    
    57   28   30 1    
    58   30   31 1    
    59   30   32 1    
    60   30   92 1    
    61   31   93 1    
    62   31   94 1    
    63   31   95 1    
    64   32   33 am   BACKBONE|DICT|INTERRES
    65   32   96 1    
    66   33   34 2    
    67   33   35 1    
    68   35   36 1    
    69   35   37 1    
    70   35   97 1    
    71   36   98 1    
    72   36   99 1    
    73   36  100 1    
    74   37   38 am   BACKBONE|DICT|INTERRES
    75   37  101 1    
    76   38   39 2    
    77   38   40 1    
    78   40   41 1    
    79   40   42 1    
    80   40  102 1    
    81   41  103 1    
    82   41  104 1    
    83   41  105 1    
    84   42   43 am   BACKBONE|DICT|INTERRES
    85   42  106 1    
    86   43   44 2    
    87   43   45 1    
    88   45   46 1    
    89   45   49 1    
    90   45  107 1    
    91   46   47 1    
    92   46  108 1    
    93   46  109 1    
    94   47   48 1    
    95   48  110 1    
    96   48  111 1    
    97   49   50 am   BACKBONE|DICT|INTERRES
    98   49  112 1    
    99   50   51 2    
   100   50   52 1    
   101   52   53 1    
   102   52   54 1    
   103   52  113 1    
   104   53  114 1    
   105   53  115 1    
   106   53  116 1    
   107   54   55 am   BACKBONE|DICT|INTERRES
   108   54  117 1    
   109   55   56 2    
   110   55   57 1    
   111   57   58 1    
   112   57   59 1    
   113   57  118 1    
   114   58  119 1    
   115   58  120 1    
   116   58  121 1    
   117   59   60 am   BACKBONE|DICT|INTERRES
   118   59  122 1    
   119   60   61 2    
   120   60   62 1    
   121   62   63 1    
   122   62   64 1    
   123   62  123 1    
   124   63  124 1    
   125   63  125 1    
   126   63  126 1    
   127   64   65 am   BACKBONE|DICT|INTERRES
   128   64  127 1    
   129   65   66 2    
@<TRIPOS>SUBSTRUCTURE
     1 UNK         1 GROUP             0       ****    0 ROOT    
