@<TRIPOS>MOLECULE
3R134
127   129    1
SMALL
USER_CHARGES


@<TRIPOS>ATOM
      1 CA         29.4752  -46.2649  -49.4988 C.3       0 UNK        -0.1968 
      2 C          30.9698  -45.9752  -49.4921 C.2       0 UNK         0.4852 
      3 O          31.5944  -46.0212  -48.4310 O.2       0 UNK        -0.5359 
      4 N          31.5351  -45.6708  -50.6666 N.am      1 UNK        -0.4300 
      5 CA         32.9612  -45.4171  -50.8859 C.3       1 UNK         0.0863 
      6 C6         33.1800  -44.3154  -51.9552 C.3       11 UNK        -0.0953 
      7 S7         32.4835  -42.6973  -51.4930 S.3       11 UNK        -0.2369 
      8 C8         33.2532  -41.6312  -52.7549 C.3       11 UNK         0.0226 
      9 C9         32.7794  -41.9821  -54.1590 C.ar      11 UNK        -0.0699 
     10 C10        33.4829  -42.9134  -54.9295 C.ar      11 UNK        -0.0804 
     11 C11        33.0327  -43.2716  -56.2033 C.ar      11 UNK        -0.0871 
     12 C12        31.9025  -42.6381  -56.7308 C.ar      11 UNK        -0.1008 
     13 C13        31.1815  -41.7162  -55.9656 C.ar      11 UNK        -0.0735 
     14 C14        31.6258  -41.3911  -54.6806 C.ar      11 UNK        -0.0945 
     15 C15        29.9067  -41.0912  -56.5112 C.3       11 UNK         0.0169 
     16 S16        28.4767  -42.1951  -56.2713 S.3       11 UNK        -0.2669 
     17 C17        28.6951  -43.3683  -57.6518 C.3       11 UNK        -0.0850 
     18 CA         27.3430  -43.9232  -58.1618 C.3       10 UNK         0.0855 
     19 C          27.5137  -44.6312  -59.5285 C.2       10 UNK         0.5543 
     20 N          26.8313  -44.1666  -60.5655 N.am      10 UNK        -0.7343 
     21 O          28.2915  -45.5730  -59.6592 O.2       10 UNK        -0.5027 
     22 N          26.7537  -44.8639  -57.2043 N.am      10 UNK        -0.4495 
     23 C          25.4416  -45.0469  -57.0268 C.2       10 UNK         0.4903 
     24 O          24.5689  -44.3305  -57.5213 O.2       10 UNK        -0.4860 
     25 CA         25.0590  -46.2753  -56.1814 C.3       9 UNK         0.0227 
     26 CB         23.5397  -46.4123  -55.9474 C.3       9 UNK        -0.1964 
     27 N          25.6219  -47.5028  -56.7561 N.am      9 UNK        -0.4231 
     28 C          25.3875  -48.0226  -57.9724 C.2       9 UNK         0.5014 
     29 O          24.5599  -47.5763  -58.7682 O.2       9 UNK        -0.5270 
     30 CA         26.2263  -49.2435  -58.3939 C.3       8 UNK         0.0284 
     31 CB         27.3044  -48.8272  -59.4064 C.3       8 UNK        -0.1977 
     32 N          26.8656  -49.9362  -57.2721 N.am      8 UNK        -0.4342 
     33 C          26.2142  -50.7183  -56.4006 C.2       8 UNK         0.5039 
     34 O          25.0107  -50.9704  -56.4726 O.2       8 UNK        -0.5547 
     35 CA         27.0378  -51.3071  -55.2449 C.3       7 UNK         0.0281 
     36 CB         27.8080  -52.5522  -55.7131 C.3       7 UNK        -0.1963 
     37 N          27.9638  -50.3403  -54.6462 N.am      7 UNK        -0.4444 
     38 C          27.5854  -49.2456  -53.9685 C.2       7 UNK         0.5104 
     39 O          26.4115  -48.9301  -53.7757 O.2       7 UNK        -0.5100 
     40 CA         28.7013  -48.3287  -53.4390 C.3       6 UNK         0.0396 
     41 CB         29.3683  -48.9351  -52.1939 C.3       6 UNK        -0.1801 
     42 N          29.7172  -48.0433  -54.4509 N.am      6 UNK        -0.4747 
     43 C          29.5031  -47.3591  -55.5836 C.2       6 UNK         0.5012 
     44 O          28.4286  -46.8325  -55.8758 O.2       6 UNK        -0.5003 
     45 CA         30.6745  -47.2771  -56.5795 C.3       5 UNK         0.0782 
     46 C46        31.6159  -46.0966  -56.2374 C.3       11 UNK        -0.0868 
     47 S47        32.6554  -45.6464  -57.6683 S.3       11 UNK        -0.2515 
     48 C48        33.7622  -44.3603  -56.9859 C.3       11 UNK         0.0199 
     49 N          31.3991  -48.5489  -56.6748 N.am      5 UNK        -0.4607 
     50 C          30.8817  -49.6924  -57.1432 C.2       4 UNK         0.5031 
     51 O          29.7280  -49.8080  -57.5544 O.2       4 UNK        -0.5119 
     52 CA         31.7969  -50.9265  -57.1068 C.3       4 UNK         0.0263 
     53 CB         32.8459  -50.8633  -58.2287 C.3       4 UNK        -0.1967 
     54 N          32.4626  -51.0941  -55.8125 N.am      4 UNK        -0.4237 
     55 C          31.8215  -51.3577  -54.6648 C.2       3 UNK         0.4908 
     56 O          30.6041  -51.5100  -54.5769 O.2       3 UNK        -0.5102 
     57 CA         32.6750  -51.4211  -53.3876 C.3       3 UNK         0.0241 
     58 CB         33.3358  -52.8020  -53.2468 C.3       3 UNK        -0.1971 
     59 N          33.6951  -50.3705  -53.2810 N.am      3 UNK        -0.4139 
     60 C          33.4543  -49.0547  -53.3593 C.2       2 UNK         0.5016 
     61 O          32.3619  -48.5685  -53.6606 O.2       2 UNK        -0.5319 
     62 CA         34.6370  -48.1140  -53.0833 C.3       2 UNK         0.0286 
     63 CB         35.3734  -47.7880  -54.3932 C.3       2 UNK        -0.1963 
     64 N          34.1642  -46.8657  -52.4822 N.am      2 UNK        -0.4790 
     65 C          33.6414  -46.7563  -51.2510 C.2       1 UNK         0.5024 
     66 O          33.6717  -47.6706  -50.4246 O.2       1 UNK        -0.4888 
     67 H67        29.2907  -47.2892  -49.1760 H         1 UNK         0.0892 
     68 H68        28.9596  -45.5931  -48.8130 H         1 UNK         0.0892 
     69 H69        29.0375  -46.1372  -50.4889 H         1 UNK         0.0892 
     70 H70        30.9641  -45.6567  -51.4989 H         1 UNK         0.3107 
     71 H71        33.4215  -45.0746  -49.9566 H         1 UNK         0.0773 
     72 H72        32.7243  -44.6121  -52.9016 H         1 UNK         0.0680 
     73 H73        34.2471  -44.1719  -52.1368 H         1 UNK         0.0680 
     74 H74        34.3393  -41.7114  -52.6877 H         1 UNK         0.0650 
     75 H75        33.0113  -40.5911  -52.5315 H         1 UNK         0.0650 
     76 H76        34.3684  -43.3811  -54.5220 H         1 UNK         0.1397 
     77 H77        31.5598  -42.8994  -57.7221 H         1 UNK         0.1363 
     78 H78        31.0673  -40.6861  -54.0800 H         1 UNK         0.1355 
     79 H79        30.0246  -40.8416  -57.5666 H         1 UNK         0.0707 
     80 H80        29.7060  -40.1479  -56.0007 H         1 UNK         0.0707 
     81 H81        29.2131  -42.8531  -58.4628 H         1 UNK         0.1034 
     82 H82        29.3537  -44.1791  -57.3364 H         1 UNK         0.1034 
     83 H83        26.6679  -43.0751  -58.2967 H         1 UNK         0.0482 
     84 H84        26.1897  -43.3956  -60.4629 H         1 UNK         0.3460 
     85 H85        26.9440  -44.6092  -61.4640 H         1 UNK         0.3460 
     86 H86        27.3937  -45.5302  -56.7791 H         1 UNK         0.2989 
     87 H87        25.5331  -46.1470  -55.2070 H         1 UNK         0.0559 
     88 H88        23.1458  -45.5341  -55.4347 H         1 UNK         0.0848 
     89 H89        23.3124  -47.2797  -55.3276 H         1 UNK         0.0848 
     90 H90        22.9885  -46.5147  -56.8825 H         1 UNK         0.0848 
     91 H91        26.3534  -47.9334  -56.2052 H         1 UNK         0.3144 
     92 H92        25.5513  -49.9446  -58.8893 H         1 UNK         0.0727 
     93 H93        28.0329  -48.1513  -58.9573 H         1 UNK         0.0790 
     94 H94        26.8656  -48.3108  -60.2614 H         1 UNK         0.0790 
     95 H95        27.8446  -49.6926  -59.7906 H         1 UNK         0.0790 
     96 H96        27.8756  -49.8309  -57.1868 H         1 UNK         0.3215 
     97 H97        26.3363  -51.6173  -54.4674 H         1 UNK         0.0863 
     98 H98        28.3075  -53.0450  -54.8789 H         1 UNK         0.0808 
     99 H99        28.5667  -52.3018  -56.4559 H         1 UNK         0.0808 
    100 H100       27.1354  -53.2827  -56.1645 H         1 UNK         0.0808 
    101 H101       28.9558  -50.5542  -54.7241 H         1 UNK         0.3118 
    102 H102       28.2467  -47.3787  -53.1502 H         1 UNK         0.0546 
    103 H103       29.8348  -49.8958  -52.4126 H         1 UNK         0.0828 
    104 H104       28.6382  -49.0991  -51.4004 H         1 UNK         0.0828 
    105 H105       30.1413  -48.2777  -51.7964 H         1 UNK         0.0828 
    106 H106       30.6581  -48.3914  -54.2664 H         1 UNK         0.3005 
    107 H107       30.2228  -47.0850  -57.5564 H         1 UNK         0.1257 
    108 H108       31.0391  -45.2152  -55.9519 H         1 UNK         0.0775 
    109 H109       32.2510  -46.3345  -55.3822 H         1 UNK         0.0775 
    110 H110       34.5061  -44.8524  -56.3574 H         1 UNK         0.0840 
    111 H111       34.3121  -43.8974  -57.8061 H         1 UNK         0.0840 
    112 H112       32.3389  -48.5542  -56.3088 H         1 UNK         0.2987 
    113 H113       31.1709  -51.8053  -57.2766 H         1 UNK         0.0785 
    114 H114       32.3671  -50.7488  -59.2023 H         1 UNK         0.0798 
    115 H115       33.4398  -51.7767  -58.2678 H         1 UNK         0.0798 
    116 H116       33.5297  -50.0230  -58.1015 H         1 UNK         0.0798 
    117 H117       33.4649  -50.9775  -55.7885 H         1 UNK         0.3079 
    118 H118       31.9949  -51.2871  -52.5438 H         1 UNK         0.0794 
    119 H119       33.8375  -52.9061  -52.2845 H         1 UNK         0.0786 
    120 H120       34.0721  -52.9816  -54.0312 H         1 UNK         0.0786 
    121 H121       32.5925  -53.5984  -53.3087 H         1 UNK         0.0786 
    122 H122       34.6292  -50.6775  -53.0501 H         1 UNK         0.3032 
    123 H123       35.3278  -48.5970  -52.3884 H         1 UNK         0.1094 
    124 H124       34.7150  -47.3121  -55.1216 H         1 UNK         0.0794 
    125 H125       36.2175  -47.1205  -54.2184 H         1 UNK         0.0794 
    126 H126       35.7700  -48.6928  -54.8557 H         1 UNK         0.0794 
    127 H127       34.0755  -46.0801  -53.1078 H         1 UNK         0.3016 
@<TRIPOS>BOND
     1    1    2 1    
     2    1   67 1    
     3    1   68 1    
     4    1   69 1    
     5    2    3 2    
     6    2    4 am   BACKBONE|DICT|INTERRES
     7    4    5 1    
     8    4   70 1    
     9    5    6 1    
    10    5   65 1    
    11    5   71 1    
    12    6    7 1    
    13    6   72 1    
    14    6   73 1    
    15    7    8 1    
    16    8    9 1    
    17    8   74 1    
    18    8   75 1    
    19    9   10 ar   
    20    9   14 ar   
    21   10   11 ar   
    22   10   76 1    
    23   11   12 ar   
    24   11   48 1    
    25   12   13 ar   
    26   12   77 1    
    27   13   14 ar   
    28   13   15 1    
    29   14   78 1    
    30   15   16 1    
    31   15   79 1    
    32   15   80 1    
    33   16   17 1    
    34   17   18 1    
    35   17   81 1    
    36   17   82 1    
    37   18   19 1    
    38   18   22 1    
    39   18   83 1    
    40   19   20 am   BACKBONE|DICT|INTERRES
    41   19   21 2    
    42   20   84 1    
    43   20   85 1    
    44   22   23 am   BACKBONE|DICT|INTERRES
    45   22   86 1    
    46   23   24 2    
    47   23   25 1    
    48   25   26 1    
    49   25   27 1    
    50   25   87 1    
    51   26   88 1    
    52   26   89 1    
    53   26   90 1    
    54   27   28 am   BACKBONE|DICT|INTERRES
    55   27   91 1    
    56   28   29 2    
    57   28   30 1    
    58   30   31 1    
    59   30   32 1    
    60   30   92 1    
    61   31   93 1    
    62   31   94 1    
    63   31   95 1    
    64   32   33 am   BACKBONE|DICT|INTERRES
    65   32   96 1    
    66   33   34 2    
    67   33   35 1    
    68   35   36 1    
    69   35   37 1    
    70   35   97 1    
    71   36   98 1    
    72   36   99 1    
    73   36  100 1    
    74   37   38 am   BACKBONE|DICT|INTERRES
    75   37  101 1    
    76   38   39 2    
    77   38   40 1    
    78   40   41 1    
    79   40   42 1    
    80   40  102 1    
    81   41  103 1    
    82   41  104 1    
    83   41  105 1    
    84   42   43 am   BACKBONE|DICT|INTERRES
    85   42  106 1    
    86   43   44 2    
    87   43   45 1    
    88   45   46 1    
    89   45   49 1    
    90   45  107 1    
    91   46   47 1    
    92   46  108 1    
    93   46  109 1    
    94   47   48 1    
    95   48  110 1    
    96   48  111 1    
    97   49   50 am   BACKBONE|DICT|INTERRES
    98   49  112 1    
    99   50   51 2    
   100   50   52 1    
   101   52   53 1    
   102   52   54 1    
   103   52  113 1    
   104   53  114 1    
   105   53  115 1    
   106   53  116 1    
   107   54   55 am   BACKBONE|DICT|INTERRES
   108   54  117 1    
   109   55   56 2    
   110   55   57 1    
   111   57   58 1    
   112   57   59 1    
   113   57  118 1    
   114   58  119 1    
   115   58  120 1    
   116   58  121 1    
   117   59   60 am   BACKBONE|DICT|INTERRES
   118   59  122 1    
   119   60   61 2    
   120   60   62 1    
   121   62   63 1    
   122   62   64 1    
   123   62  123 1    
   124   63  124 1    
   125   63  125 1    
   126   63  126 1    
   127   64   65 am   BACKBONE|DICT|INTERRES
   128   64  127 1    
   129   65   66 2    
@<TRIPOS>SUBSTRUCTURE
     1 UNK         1 GROUP             0       ****    0 ROOT    
