@<TRIPOS>MOLECULE
3R134
127   129    1
SMALL
USER_CHARGES


@<TRIPOS>ATOM
      1 CA         37.1356  -42.3684  -54.6481 C.3       0 UNK        -0.1968 
      2 C          36.8165  -43.6082  -55.4705 C.2       0 UNK         0.4852 
      3 O          37.7034  -44.1436  -56.1370 O.2       0 UNK        -0.5359 
      4 N          35.5567  -44.0627  -55.4313 N.am      1 UNK        -0.4300 
      5 CA         35.0639  -45.2609  -56.1216 C.3       1 UNK         0.0863 
      6 C6         33.5135  -45.3171  -56.1812 C.3       11 UNK        -0.0953 
      7 S7         32.6803  -44.9078  -54.6062 S.3       11 UNK        -0.2369 
      8 C8         31.3648  -46.1599  -54.5099 C.3       11 UNK         0.0226 
      9 C9         30.1869  -45.6237  -53.7127 C.ar      11 UNK        -0.0699 
     10 C10        30.1871  -45.6730  -52.3149 C.ar      11 UNK        -0.0804 
     11 C11        29.0965  -45.1771  -51.5899 C.ar      11 UNK        -0.0871 
     12 C12        28.0210  -44.5970  -52.2702 C.ar      11 UNK        -0.1008 
     13 C13        28.0094  -44.5525  -53.6659 C.ar      11 UNK        -0.0735 
     14 C14        29.0886  -45.0769  -54.3807 C.ar      11 UNK        -0.0945 
     15 C15        26.8183  -43.9713  -54.4064 C.3       11 UNK         0.0169 
     16 S16        25.5959  -45.2737  -54.7337 S.3       11 UNK        -0.2669 
     17 C17        24.9343  -44.7814  -56.3591 C.3       11 UNK        -0.0850 
     18 CA         25.6540  -45.5320  -57.5187 C.3       10 UNK         0.0855 
     19 C          24.8118  -45.6230  -58.8307 C.2       10 UNK         0.5543 
     20 N          25.4257  -45.7314  -60.0045 N.am      10 UNK        -0.7343 
     21 O          23.5837  -45.6233  -58.7908 O.2       10 UNK        -0.5027 
     22 N          27.0432  -45.0861  -57.7240 N.am      10 UNK        -0.4495 
     23 C          27.4194  -43.8981  -58.2240 C.2       10 UNK         0.4903 
     24 O          26.6482  -42.9551  -58.4027 O.2       10 UNK        -0.4860 
     25 CA         28.8946  -43.7288  -58.6417 C.3       9 UNK         0.0227 
     26 CB         29.6556  -42.8328  -57.6496 C.3       9 UNK        -0.1964 
     27 N          29.6213  -44.9894  -58.8218 N.am      9 UNK        -0.4231 
     28 C          29.3224  -45.9423  -59.7174 C.2       9 UNK         0.5014 
     29 O          28.4053  -45.8531  -60.5362 O.2       9 UNK        -0.5270 
     30 CA         30.1517  -47.2386  -59.6632 C.3       8 UNK         0.0284 
     31 CB         31.5070  -47.0861  -58.9358 C.3       8 UNK        -0.1977 
     32 N          29.3926  -48.3532  -59.0815 N.am      8 UNK        -0.4342 
     33 C          28.7898  -48.3877  -57.8831 C.2       8 UNK         0.5039 
     34 O          28.7315  -47.4264  -57.1103 O.2       8 UNK        -0.5547 
     35 CA         28.1940  -49.7465  -57.4775 C.3       7 UNK         0.0281 
     36 CB         29.3173  -50.7531  -57.1713 C.3       7 UNK        -0.1963 
     37 N          27.3650  -49.6221  -56.2810 N.am      7 UNK        -0.4444 
     38 C          26.0552  -49.3312  -56.2754 C.2       7 UNK         0.5104 
     39 O          25.3814  -49.2107  -57.2991 O.2       7 UNK        -0.5100 
     40 CA         25.3699  -49.1498  -54.9084 C.3       6 UNK         0.0396 
     41 CB         24.6444  -50.4512  -54.5111 C.3       6 UNK        -0.1801 
     42 N          26.3493  -48.7579  -53.8969 N.am      6 UNK        -0.4747 
     43 C          26.1657  -48.4568  -52.6094 C.2       6 UNK         0.5012 
     44 O          25.0723  -48.4545  -52.0413 O.2       6 UNK        -0.5003 
     45 CA         27.4610  -48.1373  -51.8335 C.3       5 UNK         0.0782 
     46 C46        27.2038  -47.4803  -50.4497 C.3       11 UNK        -0.0868 
     47 S47        28.7550  -47.0545  -49.5754 S.3       11 UNK        -0.2515 
     48 C48        29.0450  -45.3238  -50.0767 C.3       11 UNK         0.0199 
     49 N          28.3344  -49.3134  -51.7328 N.am      5 UNK        -0.4607 
     50 C          29.0928  -49.8061  -52.7190 C.2       4 UNK         0.5031 
     51 O          29.0638  -49.3973  -53.8835 O.2       4 UNK        -0.5119 
     52 CA         30.0119  -50.9816  -52.3507 C.3       4 UNK         0.0263 
     53 CB         29.3012  -52.3158  -52.6304 C.3       4 UNK        -0.1967 
     54 N          31.2697  -50.9412  -53.1005 N.am      4 UNK        -0.4237 
     55 C          32.1850  -49.9675  -53.0047 C.2       3 UNK         0.4908 
     56 O          32.1195  -49.0349  -52.1984 O.2       3 UNK        -0.5102 
     57 CA         33.3656  -50.0546  -53.9812 C.3       3 UNK         0.0241 
     58 CB         32.8987  -49.9336  -55.4456 C.3       3 UNK        -0.1971 
     59 N          34.3093  -48.9762  -53.7003 N.am      3 UNK        -0.4139 
     60 C          35.6422  -49.0787  -53.7052 C.2       2 UNK         0.5016 
     61 O          36.2501  -50.1323  -53.9082 O.2       2 UNK        -0.5319 
     62 CA         36.4159  -47.7625  -53.4743 C.3       2 UNK         0.0286 
     63 CB         37.9286  -47.8996  -53.7498 C.3       2 UNK        -0.1963 
     64 N          35.8613  -46.6304  -54.2352 N.am      2 UNK        -0.4790 
     65 C          35.6615  -46.5688  -55.5638 C.2       1 UNK         0.5024 
     66 O          35.9299  -47.4802  -56.3478 O.2       1 UNK        -0.4888 
     67 H67        36.2612  -41.9963  -54.1144 H         1 UNK         0.0892 
     68 H68        37.9095  -42.5939  -53.9149 H         1 UNK         0.0892 
     69 H69        37.5010  -41.5722  -55.2960 H         1 UNK         0.0892 
     70 H70        34.8665  -43.5799  -54.8723 H         1 UNK         0.3107 
     71 H71        35.4157  -45.1922  -57.1537 H         1 UNK         0.0773 
     72 H72        33.1821  -46.2948  -56.5339 H         1 UNK         0.0680 
     73 H73        33.1579  -44.6023  -56.9248 H         1 UNK         0.0680 
     74 H74        31.7545  -47.0659  -54.0469 H         1 UNK         0.0650 
     75 H75        31.0349  -46.4401  -55.5111 H         1 UNK         0.0650 
     76 H76        31.0210  -46.1245  -51.7943 H         1 UNK         0.1397 
     77 H77        27.1724  -44.2168  -51.7177 H         1 UNK         0.1363 
     78 H78        29.0671  -45.0730  -55.4608 H         1 UNK         0.1355 
     79 H79        26.3523  -43.1758  -53.8231 H         1 UNK         0.0707 
     80 H80        27.1527  -43.5133  -55.3371 H         1 UNK         0.0707 
     81 H81        23.8714  -45.0270  -56.3371 H         1 UNK         0.1034 
     82 H82        24.9833  -43.6994  -56.4860 H         1 UNK         0.1034 
     83 H83        25.7453  -46.5722  -57.2120 H         1 UNK         0.0482 
     84 H84        26.4381  -45.7448  -60.0672 H         1 UNK         0.3460 
     85 H85        24.8721  -45.7991  -60.8434 H         1 UNK         0.3460 
     86 H86        27.7467  -45.8079  -57.5868 H         1 UNK         0.2989 
     87 H87        28.8881  -43.2227  -59.6092 H         1 UNK         0.0559 
     88 H88        29.1416  -41.8807  -57.5106 H         1 UNK         0.0848 
     89 H89        30.6584  -42.6045  -58.0110 H         1 UNK         0.0848 
     90 H90        29.7530  -43.2930  -56.6675 H         1 UNK         0.0848 
     91 H91        30.3627  -45.1830  -58.1654 H         1 UNK         0.3144 
     92 H92        30.3628  -47.5074  -60.6994 H         1 UNK         0.0727 
     93 H93        32.1123  -47.9856  -59.0500 H         1 UNK         0.0790 
     94 H94        31.3791  -46.9169  -57.8675 H         1 UNK         0.0790 
     95 H95        32.0885  -46.2577  -59.3432 H         1 UNK         0.0790 
     96 H96        29.3466  -49.1835  -59.6558 H         1 UNK         0.3215 
     97 H97        27.5909  -50.1253  -58.3057 H         1 UNK         0.0863 
     98 H98        28.9120  -51.7220  -56.8791 H         1 UNK         0.0808 
     99 H99        29.9558  -50.4013  -56.3602 H         1 UNK         0.0808 
    100 H100       29.9549  -50.9205  -58.0400 H         1 UNK         0.0808 
    101 H101       27.8783  -49.6763  -55.4083 H         1 UNK         0.3118 
    102 H102       24.6399  -48.3441  -55.0042 H         1 UNK         0.0546 
    103 H103       25.3492  -51.2619  -54.3229 H         1 UNK         0.0828 
    104 H104       23.9715  -50.7807  -55.3039 H         1 UNK         0.0828 
    105 H105       24.0367  -50.3199  -53.6163 H         1 UNK         0.0828 
    106 H106       27.3113  -48.7060  -54.2176 H         1 UNK         0.3005 
    107 H107       27.9835  -47.4065  -52.4503 H         1 UNK         0.1257 
    108 H108       26.6340  -48.1559  -49.8092 H         1 UNK         0.0775 
    109 H109       26.5953  -46.5805  -50.5564 H         1 UNK         0.0775 
    110 H110       28.2650  -44.6915  -49.6496 H         1 UNK         0.0840 
    111 H111       29.9868  -44.9809  -49.6460 H         1 UNK         0.0840 
    112 H112       28.4005  -49.7259  -50.8139 H         1 UNK         0.2987 
    113 H113       30.2528  -50.9229  -51.2870 H         1 UNK         0.0785 
    114 H114       29.9214  -53.1652  -52.3435 H         1 UNK         0.0798 
    115 H115       29.0484  -52.4244  -53.6863 H         1 UNK         0.0798 
    116 H116       28.3714  -52.3903  -52.0647 H         1 UNK         0.0798 
    117 H117       31.3942  -51.6548  -53.8032 H         1 UNK         0.3079 
    118 H118       33.8488  -51.0225  -53.8314 H         1 UNK         0.0794 
    119 H119       32.2890  -50.7880  -55.7395 H         1 UNK         0.0786 
    120 H120       33.7474  -49.8984  -56.1295 H         1 UNK         0.0786 
    121 H121       32.3044  -49.0334  -55.6088 H         1 UNK         0.0786 
    122 H122       33.8869  -48.0961  -53.4375 H         1 UNK         0.3032 
    123 H123       36.2940  -47.5221  -52.4166 H         1 UNK         0.1094 
    124 H124       38.4539  -46.9652  -53.5522 H         1 UNK         0.0794 
    125 H125       38.3757  -48.6630  -53.1118 H         1 UNK         0.0794 
    126 H126       38.1271  -48.1826  -54.7842 H         1 UNK         0.0794 
    127 H127       35.5912  -45.8233  -53.6898 H         1 UNK         0.3016 
@<TRIPOS>BOND
     1    1    2 1    
     2    1   67 1    
     3    1   68 1    
     4    1   69 1    
     5    2    3 2    
     6    2    4 am   BACKBONE|DICT|INTERRES
     7    4    5 1    
     8    4   70 1    
     9    5    6 1    
    10    5   65 1    
    11    5   71 1    
    12    6    7 1    
    13    6   72 1    
    14    6   73 1    
    15    7    8 1    
    16    8    9 1    
    17    8   74 1    
    18    8   75 1    
    19    9   10 ar   
    20    9   14 ar   
    21   10   11 ar   
    22   10   76 1    
    23   11   12 ar   
    24   11   48 1    
    25   12   13 ar   
    26   12   77 1    
    27   13   14 ar   
    28   13   15 1    
    29   14   78 1    
    30   15   16 1    
    31   15   79 1    
    32   15   80 1    
    33   16   17 1    
    34   17   18 1    
    35   17   81 1    
    36   17   82 1    
    37   18   19 1    
    38   18   22 1    
    39   18   83 1    
    40   19   20 am   BACKBONE|DICT|INTERRES
    41   19   21 2    
    42   20   84 1    
    43   20   85 1    
    44   22   23 am   BACKBONE|DICT|INTERRES
    45   22   86 1    
    46   23   24 2    
    47   23   25 1    
    48   25   26 1    
    49   25   27 1    
    50   25   87 1    
    51   26   88 1    
    52   26   89 1    
    53   26   90 1    
    54   27   28 am   BACKBONE|DICT|INTERRES
    55   27   91 1    
    56   28   29 2    
    57   28   30 1    
    58   30   31 1    
    59   30   32 1    
    60   30   92 1    
    61   31   93 1    
    62   31   94 1    
    63   31   95 1    
    64   32   33 am   BACKBONE|DICT|INTERRES
    65   32   96 1    
    66   33   34 2    
    67   33   35 1    
    68   35   36 1    
    69   35   37 1    
    70   35   97 1    
    71   36   98 1    
    72   36   99 1    
    73   36  100 1    
    74   37   38 am   BACKBONE|DICT|INTERRES
    75   37  101 1    
    76   38   39 2    
    77   38   40 1    
    78   40   41 1    
    79   40   42 1    
    80   40  102 1    
    81   41  103 1    
    82   41  104 1    
    83   41  105 1    
    84   42   43 am   BACKBONE|DICT|INTERRES
    85   42  106 1    
    86   43   44 2    
    87   43   45 1    
    88   45   46 1    
    89   45   49 1    
    90   45  107 1    
    91   46   47 1    
    92   46  108 1    
    93   46  109 1    
    94   47   48 1    
    95   48  110 1    
    96   48  111 1    
    97   49   50 am   BACKBONE|DICT|INTERRES
    98   49  112 1    
    99   50   51 2    
   100   50   52 1    
   101   52   53 1    
   102   52   54 1    
   103   52  113 1    
   104   53  114 1    
   105   53  115 1    
   106   53  116 1    
   107   54   55 am   BACKBONE|DICT|INTERRES
   108   54  117 1    
   109   55   56 2    
   110   55   57 1    
   111   57   58 1    
   112   57   59 1    
   113   57  118 1    
   114   58  119 1    
   115   58  120 1    
   116   58  121 1    
   117   59   60 am   BACKBONE|DICT|INTERRES
   118   59  122 1    
   119   60   61 2    
   120   60   62 1    
   121   62   63 1    
   122   62   64 1    
   123   62  123 1    
   124   63  124 1    
   125   63  125 1    
   126   63  126 1    
   127   64   65 am   BACKBONE|DICT|INTERRES
   128   64  127 1    
   129   65   66 2    
@<TRIPOS>SUBSTRUCTURE
     1 UNK         1 GROUP             0       ****    0 ROOT    
