@<TRIPOS>MOLECULE
3R134
127   129    1
SMALL
USER_CHARGES


@<TRIPOS>ATOM
      1 CA         30.4109  -45.1893  -48.3326 C.3       0 UNK        -0.1968 
      2 C          31.7996  -45.3898  -48.9215 C.2       0 UNK         0.4852 
      3 O          32.7157  -45.7942  -48.2043 O.2       0 UNK        -0.5359 
      4 N          31.9602  -45.1116  -50.2223 N.am      1 UNK        -0.4300 
      5 CA         33.2274  -45.2248  -50.9597 C.3       1 UNK         0.0863 
      6 C6         33.1872  -44.4430  -52.2964 C.3       11 UNK        -0.0953 
      7 S7         32.7524  -42.6834  -52.0850 S.3       11 UNK        -0.2369 
      8 C8         33.3141  -41.9805  -53.6689 C.3       11 UNK         0.0226 
      9 C9         32.6261  -42.6379  -54.8569 C.ar      11 UNK        -0.0699 
     10 C10        33.3139  -43.5659  -55.6426 C.ar      11 UNK        -0.0804 
     11 C11        32.6821  -44.1915  -56.7205 C.ar      11 UNK        -0.0871 
     12 C12        31.3449  -43.8926  -57.0028 C.ar      11 UNK        -0.1008 
     13 C13        30.6416  -42.9704  -56.2202 C.ar      11 UNK        -0.0735 
     14 C14        31.2976  -42.3313  -55.1613 C.ar      11 UNK        -0.0945 
     15 C15        29.1761  -42.6733  -56.5198 C.3       11 UNK         0.0169 
     16 S16        28.1422  -42.8255  -55.0288 S.3       11 UNK        -0.2669 
     17 C17        26.4724  -43.0244  -55.7313 C.3       11 UNK        -0.0850 
     18 CA         26.0961  -44.5312  -55.8177 C.3       10 UNK         0.0855 
     19 C          24.6014  -44.8177  -55.5097 C.2       10 UNK         0.5543 
     20 N          24.3276  -45.8496  -54.7235 N.am      10 UNK        -0.7343 
     21 O          23.7006  -44.1027  -55.9424 O.2       10 UNK        -0.5027 
     22 N          26.5454  -45.1730  -57.0620 N.am      10 UNK        -0.4495 
     23 C          26.0944  -44.9446  -58.3038 C.2       10 UNK         0.4903 
     24 O          25.2716  -44.0785  -58.5988 O.2       10 UNK        -0.4860 
     25 CA         26.6569  -45.8374  -59.4185 C.3       9 UNK         0.0227 
     26 CB         28.0091  -45.2951  -59.9142 C.3       9 UNK        -0.1964 
     27 N          26.8162  -47.2225  -58.9643 N.am      9 UNK        -0.4231 
     28 C          26.0514  -48.2495  -59.3579 C.2       9 UNK         0.5014 
     29 O          25.1209  -48.1459  -60.1589 O.2       9 UNK        -0.5270 
     30 CA         26.3842  -49.6392  -58.7869 C.3       8 UNK         0.0284 
     31 CB         27.5189  -50.2989  -59.5877 C.3       8 UNK        -0.1977 
     32 N          26.7232  -49.6420  -57.3614 N.am      8 UNK        -0.4342 
     33 C          25.8361  -49.4506  -56.3740 C.2       8 UNK         0.5039 
     34 O          24.6546  -49.1598  -56.5606 O.2       8 UNK        -0.5547 
     35 CA         26.3440  -49.6351  -54.9361 C.3       7 UNK         0.0281 
     36 CB         26.5133  -51.1270  -54.6012 C.3       7 UNK        -0.1963 
     37 N          27.6141  -48.9368  -54.7399 N.am      7 UNK        -0.4444 
     38 C          27.7264  -47.7229  -54.1850 C.2       7 UNK         0.5104 
     39 O          26.7815  -47.1279  -53.6657 O.2       7 UNK        -0.5100 
     40 CA         29.1100  -47.0385  -54.2238 C.3       6 UNK         0.0396 
     41 CB         29.7813  -47.1098  -52.8472 C.3       6 UNK        -0.1801 
     42 N          30.0196  -47.5787  -55.2426 N.am      6 UNK        -0.4747 
     43 C          29.7986  -47.4790  -56.5623 C.2       6 UNK         0.5012 
     44 O          28.8351  -46.8786  -57.0369 O.2       6 UNK        -0.5003 
     45 CA         30.7185  -48.2610  -57.5204 C.3       5 UNK         0.0782 
     46 C46        31.8069  -47.3819  -58.1766 C.3       11 UNK        -0.0868 
     47 S47        33.1690  -46.8982  -57.0624 S.3       11 UNK        -0.2515 
     48 C48        33.4596  -45.1779  -57.5787 C.3       11 UNK         0.0199 
     49 N          31.2543  -49.4958  -56.9446 N.am      5 UNK        -0.4607 
     50 C          30.5254  -50.5419  -56.5403 C.2       4 UNK         0.5031 
     51 O          29.2948  -50.5538  -56.5885 O.2       4 UNK        -0.5119 
     52 CA         31.2616  -51.7662  -55.9626 C.3       4 UNK         0.0263 
     53 CB         31.5405  -52.8074  -57.0632 C.3       4 UNK        -0.1967 
     54 N          32.4731  -51.4496  -55.1889 N.am      4 UNK        -0.4237 
     55 C          33.6290  -50.9108  -55.6080 C.2       3 UNK         0.4908 
     56 O          33.8788  -50.6704  -56.7901 O.2       3 UNK        -0.5102 
     57 CA         34.6614  -50.5429  -54.5208 C.3       3 UNK         0.0241 
     58 CB         35.6024  -49.4050  -54.9718 C.3       3 UNK        -0.1971 
     59 N          34.0832  -50.2173  -53.2067 N.am      3 UNK        -0.4139 
     60 C          33.1651  -49.2784  -52.9234 C.2       2 UNK         0.5016 
     61 O          32.5661  -48.6177  -53.7758 O.2       2 UNK        -0.5319 
     62 CA         32.8196  -49.0594  -51.4350 C.3       2 UNK         0.0286 
     63 CB         33.7718  -49.7643  -50.4405 C.3       2 UNK        -0.1963 
     64 N          32.6993  -47.6317  -51.1168 N.am      2 UNK        -0.4790 
     65 C          33.6509  -46.6888  -51.2208 C.2       1 UNK         0.5024 
     66 O          34.8228  -46.9252  -51.5192 O.2       1 UNK        -0.4888 
     67 H67        30.0369  -46.1281  -47.9250 H         1 UNK         0.0892 
     68 H68        30.4483  -44.4582  -47.5255 H         1 UNK         0.0892 
     69 H69        29.6983  -44.8353  -49.0774 H         1 UNK         0.0892 
     70 H70        31.1834  -44.7428  -50.7523 H         1 UNK         0.3107 
     71 H71        34.0092  -44.7811  -50.3392 H         1 UNK         0.0773 
     72 H72        34.1598  -44.4944  -52.7901 H         1 UNK         0.0680 
     73 H73        32.4699  -44.8915  -52.9864 H         1 UNK         0.0680 
     74 H74        34.3979  -42.0828  -53.7425 H         1 UNK         0.0650 
     75 H75        33.1062  -40.9096  -53.6746 H         1 UNK         0.0650 
     76 H76        34.3428  -43.8058  -55.4114 H         1 UNK         0.1397 
     77 H77        30.8489  -44.3809  -57.8292 H         1 UNK         0.1363 
     78 H78        30.7632  -41.6164  -54.5506 H         1 UNK         0.1355 
     79 H79        28.8001  -43.3566  -57.2825 H         1 UNK         0.0707 
     80 H80        29.0834  -41.6650  -56.9252 H         1 UNK         0.0707 
     81 H81        26.3940  -42.5235  -56.6971 H         1 UNK         0.1034 
     82 H82        25.7924  -42.4881  -55.0666 H         1 UNK         0.1034 
     83 H83        26.6560  -45.0366  -55.0342 H         1 UNK         0.0482 
     84 H84        23.3696  -46.0623  -54.4959 H         1 UNK         0.3460 
     85 H85        25.0816  -46.4058  -54.3319 H         1 UNK         0.3460 
     86 H86        27.2755  -45.8691  -56.9457 H         1 UNK         0.2989 
     87 H87        25.9587  -45.7927  -60.2569 H         1 UNK         0.0559 
     88 H88        27.9053  -44.2744  -60.2848 H         1 UNK         0.0848 
     89 H89        28.4000  -45.8982  -60.7336 H         1 UNK         0.0848 
     90 H90        28.7602  -45.2773  -59.1249 H         1 UNK         0.0848 
     91 H91        27.5414  -47.3808  -58.2707 H         1 UNK         0.3144 
     92 H92        25.4937  -50.2597  -58.9106 H         1 UNK         0.0727 
     93 H93        27.7190  -51.3106  -59.2337 H         1 UNK         0.0790 
     94 H94        28.4469  -49.7326  -59.5227 H         1 UNK         0.0790 
     95 H95        27.2572  -50.3719  -60.6442 H         1 UNK         0.0790 
     96 H96        27.6668  -49.9360  -57.1152 H         1 UNK         0.3215 
     97 H97        25.5838  -49.2332  -54.2625 H         1 UNK         0.0863 
     98 H98        26.8281  -51.2651  -53.5668 H         1 UNK         0.0808 
     99 H99        27.2496  -51.6133  -55.2415 H         1 UNK         0.0808 
    100 H100       25.5708  -51.6617  -54.7264 H         1 UNK         0.0808 
    101 H101       28.4325  -49.3552  -55.1667 H         1 UNK         0.3118 
    102 H102       28.9430  -45.9851  -54.4592 H         1 UNK         0.0546 
    103 H103       29.1474  -46.6667  -52.0778 H         1 UNK         0.0828 
    104 H104       30.7233  -46.5636  -52.8492 H         1 UNK         0.0828 
    105 H105       29.9846  -48.1401  -52.5547 H         1 UNK         0.0828 
    106 H106       30.8547  -48.0573  -54.9161 H         1 UNK         0.3005 
    107 H107       30.0660  -48.5797  -58.3344 H         1 UNK         0.1257 
    108 H108       32.2529  -47.9273  -59.0097 H         1 UNK         0.0775 
    109 H109       31.3510  -46.4984  -58.6250 H         1 UNK         0.0775 
    110 H110       34.5288  -44.9741  -57.5021 H         1 UNK         0.0840 
    111 H111       33.2104  -45.0454  -58.6326 H         1 UNK         0.0840 
    112 H112       32.2653  -49.5672  -56.8834 H         1 UNK         0.2987 
    113 H113       30.5731  -52.2238  -55.2503 H         1 UNK         0.0785 
    114 H114       32.0037  -53.7045  -56.6525 H         1 UNK         0.0798 
    115 H115       32.1967  -52.4165  -57.8413 H         1 UNK         0.0798 
    116 H116       30.6134  -53.1146  -57.5492 H         1 UNK         0.0798 
    117 H117       32.3796  -51.5789  -54.1914 H         1 UNK         0.3079 
    118 H118       35.2702  -51.4364  -54.3755 H         1 UNK         0.0794 
    119 H119       36.1387  -49.6704  -55.8837 H         1 UNK         0.0786 
    120 H120       36.3509  -49.1842  -54.2109 H         1 UNK         0.0786 
    121 H121       35.0508  -48.4858  -55.1728 H         1 UNK         0.0786 
    122 H122       34.4852  -50.7165  -52.4252 H         1 UNK         0.3032 
    123 H123       31.8262  -49.4889  -51.2960 H         1 UNK         0.1094 
    124 H124       34.8086  -49.4506  -50.5687 H         1 UNK         0.0794 
    125 H125       33.4899  -49.5448  -49.4105 H         1 UNK         0.0794 
    126 H126       33.7336  -50.8487  -50.5508 H         1 UNK         0.0794 
    127 H127       31.7728  -47.3182  -50.8686 H         1 UNK         0.3016 
@<TRIPOS>BOND
     1    1    2 1    
     2    1   67 1    
     3    1   68 1    
     4    1   69 1    
     5    2    3 2    
     6    2    4 am   BACKBONE|DICT|INTERRES
     7    4    5 1    
     8    4   70 1    
     9    5    6 1    
    10    5   65 1    
    11    5   71 1    
    12    6    7 1    
    13    6   72 1    
    14    6   73 1    
    15    7    8 1    
    16    8    9 1    
    17    8   74 1    
    18    8   75 1    
    19    9   10 ar   
    20    9   14 ar   
    21   10   11 ar   
    22   10   76 1    
    23   11   12 ar   
    24   11   48 1    
    25   12   13 ar   
    26   12   77 1    
    27   13   14 ar   
    28   13   15 1    
    29   14   78 1    
    30   15   16 1    
    31   15   79 1    
    32   15   80 1    
    33   16   17 1    
    34   17   18 1    
    35   17   81 1    
    36   17   82 1    
    37   18   19 1    
    38   18   22 1    
    39   18   83 1    
    40   19   20 am   BACKBONE|DICT|INTERRES
    41   19   21 2    
    42   20   84 1    
    43   20   85 1    
    44   22   23 am   BACKBONE|DICT|INTERRES
    45   22   86 1    
    46   23   24 2    
    47   23   25 1    
    48   25   26 1    
    49   25   27 1    
    50   25   87 1    
    51   26   88 1    
    52   26   89 1    
    53   26   90 1    
    54   27   28 am   BACKBONE|DICT|INTERRES
    55   27   91 1    
    56   28   29 2    
    57   28   30 1    
    58   30   31 1    
    59   30   32 1    
    60   30   92 1    
    61   31   93 1    
    62   31   94 1    
    63   31   95 1    
    64   32   33 am   BACKBONE|DICT|INTERRES
    65   32   96 1    
    66   33   34 2    
    67   33   35 1    
    68   35   36 1    
    69   35   37 1    
    70   35   97 1    
    71   36   98 1    
    72   36   99 1    
    73   36  100 1    
    74   37   38 am   BACKBONE|DICT|INTERRES
    75   37  101 1    
    76   38   39 2    
    77   38   40 1    
    78   40   41 1    
    79   40   42 1    
    80   40  102 1    
    81   41  103 1    
    82   41  104 1    
    83   41  105 1    
    84   42   43 am   BACKBONE|DICT|INTERRES
    85   42  106 1    
    86   43   44 2    
    87   43   45 1    
    88   45   46 1    
    89   45   49 1    
    90   45  107 1    
    91   46   47 1    
    92   46  108 1    
    93   46  109 1    
    94   47   48 1    
    95   48  110 1    
    96   48  111 1    
    97   49   50 am   BACKBONE|DICT|INTERRES
    98   49  112 1    
    99   50   51 2    
   100   50   52 1    
   101   52   53 1    
   102   52   54 1    
   103   52  113 1    
   104   53  114 1    
   105   53  115 1    
   106   53  116 1    
   107   54   55 am   BACKBONE|DICT|INTERRES
   108   54  117 1    
   109   55   56 2    
   110   55   57 1    
   111   57   58 1    
   112   57   59 1    
   113   57  118 1    
   114   58  119 1    
   115   58  120 1    
   116   58  121 1    
   117   59   60 am   BACKBONE|DICT|INTERRES
   118   59  122 1    
   119   60   61 2    
   120   60   62 1    
   121   62   63 1    
   122   62   64 1    
   123   62  123 1    
   124   63  124 1    
   125   63  125 1    
   126   63  126 1    
   127   64   65 am   BACKBONE|DICT|INTERRES
   128   64  127 1    
   129   65   66 2    
@<TRIPOS>SUBSTRUCTURE
     1 UNK         1 GROUP             0       ****    0 ROOT    
