@<TRIPOS>MOLECULE
3R134
127   129    1
SMALL
USER_CHARGES


@<TRIPOS>ATOM
      1 CA         26.7904  -47.1848  -52.0898 C.3       0 UNK        -0.1968 
      2 C          28.2803  -47.0131  -51.8373 C.2       0 UNK         0.4852 
      3 O          28.7211  -47.1344  -50.6922 O.2       0 UNK        -0.5359 
      4 N          29.0653  -46.7434  -52.8891 N.am      1 UNK        -0.4300 
      5 CA         30.5265  -46.6035  -52.8397 C.3       1 UNK         0.0863 
      6 C6         31.0680  -45.8115  -54.0544 C.3       11 UNK        -0.0953 
      7 S7         30.6366  -44.0436  -53.9743 S.3       11 UNK        -0.2369 
      8 C8         31.9434  -43.3286  -55.0219 C.3       11 UNK         0.0226 
      9 C9         31.7348  -43.7057  -56.4797 C.ar      11 UNK        -0.0699 
     10 C10        32.3716  -44.8228  -57.0264 C.ar      11 UNK        -0.0804 
     11 C11        32.1379  -45.1954  -58.3538 C.ar      11 UNK        -0.0871 
     12 C12        31.2439  -44.4468  -59.1290 C.ar      11 UNK        -0.1008 
     13 C13        30.6067  -43.3216  -58.5922 C.ar      11 UNK        -0.0735 
     14 C14        30.8819  -42.9428  -57.2776 C.ar      11 UNK        -0.0945 
     15 C15        29.6247  -42.5106  -59.4254 C.3       11 UNK         0.0169 
     16 S16        27.9106  -42.7014  -58.8276 S.3       11 UNK        -0.2669 
     17 C17        27.6779  -41.2604  -57.7232 C.3       11 UNK        -0.0850 
     18 CA         27.5603  -41.5918  -56.2070 C.3       10 UNK         0.0855 
     19 C          27.2768  -40.2853  -55.4071 C.2       10 UNK         0.5543 
     20 N          26.0884  -40.0922  -54.8482 N.am      10 UNK        -0.7343 
     21 O          28.1526  -39.4305  -55.3019 O.2       10 UNK        -0.5027 
     22 N          26.6449  -42.7158  -55.9477 N.am      10 UNK        -0.4495 
     23 C          26.4838  -43.3283  -54.7654 C.2       10 UNK         0.4903 
     24 O          27.0453  -42.9904  -53.7239 O.2       10 UNK        -0.4860 
     25 CA         25.5308  -44.5324  -54.7427 C.3       9 UNK         0.0227 
     26 CB         24.0720  -44.0691  -54.5992 C.3       9 UNK        -0.1964 
     27 N          25.6669  -45.3787  -55.9299 N.am      9 UNK        -0.4231 
     28 C          26.6967  -46.2043  -56.1563 C.2       9 UNK         0.5014 
     29 O          27.6380  -46.3774  -55.3763 O.2       9 UNK        -0.5270 
     30 CA         26.6666  -46.9775  -57.4809 C.3       8 UNK         0.0284 
     31 CB         27.7932  -46.5117  -58.4172 C.3       8 UNK        -0.1977 
     32 N          26.8088  -48.4058  -57.2106 N.am      8 UNK        -0.4342 
     33 C          25.7966  -49.2117  -56.8634 C.2       8 UNK         0.5039 
     34 O          24.6216  -48.8467  -56.8007 O.2       8 UNK        -0.5547 
     35 CA         26.1447  -50.6745  -56.5410 C.3       7 UNK         0.0281 
     36 CB         25.9574  -51.5586  -57.7845 C.3       7 UNK        -0.1963 
     37 N          27.5090  -50.8384  -56.0369 N.am      7 UNK        -0.4444 
     38 C          27.9186  -50.5092  -54.8077 C.2       7 UNK         0.5104 
     39 O          27.1762  -50.0453  -53.9428 O.2       7 UNK        -0.5100 
     40 CA         29.4055  -50.7325  -54.4798 C.3       6 UNK         0.0396 
     41 CB         29.7189  -52.2245  -54.2622 C.3       6 UNK        -0.1801 
     42 N          30.3574  -50.1144  -55.4162 N.am      6 UNK        -0.4747 
     43 C          30.5508  -50.3756  -56.7170 C.2       6 UNK         0.5012 
     44 O          29.9163  -51.2242  -57.3456 O.2       6 UNK        -0.5003 
     45 CA         31.6007  -49.5290  -57.4652 C.3       5 UNK         0.0782 
     46 C46        30.9282  -48.2900  -58.1082 C.3       11 UNK        -0.0868 
     47 S47        31.8063  -47.6966  -59.5907 S.3       11 UNK        -0.2515 
     48 C48        32.8901  -46.3779  -58.9535 C.3       11 UNK         0.0199 
     49 N          32.7504  -49.1420  -56.6386 N.am      5 UNK        -0.4607 
     50 C          33.6613  -49.9823  -56.1303 C.2       4 UNK         0.5031 
     51 O          33.5867  -51.2080  -56.2136 O.2       4 UNK        -0.5119 
     52 CA         34.8845  -49.3520  -55.4494 C.3       4 UNK         0.0263 
     53 CB         35.2810  -47.9747  -56.0213 C.3       4 UNK        -0.1967 
     54 N          34.6612  -49.2416  -54.0105 N.am      4 UNK        -0.4237 
     55 C          35.6168  -49.4017  -53.0827 C.2       3 UNK         0.4908 
     56 O          36.7814  -49.7001  -53.3530 O.2       3 UNK        -0.5102 
     57 CA         35.2481  -49.1700  -51.6029 C.3       3 UNK         0.0241 
     58 CB         35.8537  -47.8476  -51.1024 C.3       3 UNK        -0.1971 
     59 N          33.8089  -49.1554  -51.3412 N.am      3 UNK        -0.4139 
     60 C          33.0104  -50.2293  -51.3738 C.2       2 UNK         0.5016 
     61 O          33.4157  -51.3786  -51.5494 O.2       2 UNK        -0.5319 
     62 CA         31.5005  -49.9820  -51.2035 C.3       2 UNK         0.0286 
     63 CB         31.0640  -50.3067  -49.7662 C.3       2 UNK        -0.1963 
     64 N          31.0346  -48.6287  -51.5460 N.am      2 UNK        -0.4790 
     65 C          31.2018  -47.9857  -52.7107 C.2       1 UNK         0.5024 
     66 O          31.8453  -48.4504  -53.6545 O.2       1 UNK        -0.4888 
     67 H67        26.5740  -47.3350  -53.1467 H         1 UNK         0.0892 
     68 H68        26.4180  -48.0563  -51.5521 H         1 UNK         0.0892 
     69 H69        26.2451  -46.3082  -51.7419 H         1 UNK         0.0892 
     70 H70        28.6395  -46.6321  -53.8091 H         1 UNK         0.3107 
     71 H71        30.7904  -46.0452  -51.9387 H         1 UNK         0.0773 
     72 H72        32.1566  -45.8810  -54.0978 H         1 UNK         0.0680 
     73 H73        30.6908  -46.2275  -54.9909 H         1 UNK         0.0680 
     74 H74        32.9235  -43.6558  -54.6718 H         1 UNK         0.0650 
     75 H75        31.9269  -42.2430  -54.9139 H         1 UNK         0.0650 
     76 H76        33.0513  -45.3976  -56.4142 H         1 UNK         0.1397 
     77 H77        31.0516  -44.7393  -60.1524 H         1 UNK         0.1363 
     78 H78        30.4156  -42.0613  -56.8670 H         1 UNK         0.1355 
     79 H79        29.9189  -41.4605  -59.4328 H         1 UNK         0.0707 
     80 H80        29.6584  -42.8378  -60.4657 H         1 UNK         0.0707 
     81 H81        28.4860  -40.5453  -57.8862 H         1 UNK         0.1034 
     82 H82        26.7716  -40.7527  -58.0592 H         1 UNK         0.1034 
     83 H83        28.5325  -41.9349  -55.8569 H         1 UNK         0.0482 
     84 H84        25.3689  -40.7923  -54.9274 H         1 UNK         0.3460 
     85 H85        25.9153  -39.2438  -54.3327 H         1 UNK         0.3460 
     86 H86        26.1546  -43.0739  -56.7531 H         1 UNK         0.2989 
     87 H87        25.7776  -45.1316  -53.8655 H         1 UNK         0.0559 
     88 H88        23.7448  -43.4774  -55.4551 H         1 UNK         0.0848 
     89 H89        23.9459  -43.4512  -53.7089 H         1 UNK         0.0848 
     90 H90        23.3949  -44.9176  -54.4991 H         1 UNK         0.0848 
     91 H91        24.9291  -45.3233  -56.6176 H         1 UNK         0.3144 
     92 H92        25.7152  -46.8079  -57.9900 H         1 UNK         0.0727 
     93 H93        27.5638  -45.5297  -58.8263 H         1 UNK         0.0790 
     94 H94        27.9219  -47.1852  -59.2646 H         1 UNK         0.0790 
     95 H95        28.7491  -46.4241  -57.9005 H         1 UNK         0.0790 
     96 H96        27.7466  -48.7732  -57.1726 H         1 UNK         0.3215 
     97 H97        25.4497  -51.0156  -55.7703 H         1 UNK         0.0863 
     98 H98        26.6405  -51.2774  -58.5872 H         1 UNK         0.0808 
     99 H99        24.9421  -51.4735  -58.1746 H         1 UNK         0.0808 
    100 H100       26.1269  -52.6102  -57.5524 H         1 UNK         0.0808 
    101 H101       28.2154  -51.1902  -56.6808 H         1 UNK         0.3118 
    102 H102       29.5663  -50.2280  -53.5296 H         1 UNK         0.0546 
    103 H103       29.5807  -52.8100  -55.1714 H         1 UNK         0.0828 
    104 H104       29.0670  -52.6521  -53.4994 H         1 UNK         0.0828 
    105 H105       30.7466  -52.3668  -53.9276 H         1 UNK         0.0828 
    106 H106       30.9534  -49.4059  -54.9947 H         1 UNK         0.3005 
    107 H107       31.9790  -50.1725  -58.2633 H         1 UNK         0.1257 
    108 H108       30.8099  -47.4835  -57.3826 H         1 UNK         0.0775 
    109 H109       29.9212  -48.5323  -58.4528 H         1 UNK         0.0775 
    110 H110       33.5835  -46.8087  -58.2323 H         1 UNK         0.0840 
    111 H111       33.5059  -46.0124  -59.7764 H         1 UNK         0.0840 
    112 H112       32.8806  -48.1537  -56.4932 H         1 UNK         0.2987 
    113 H113       35.7123  -50.0392  -55.6383 H         1 UNK         0.0785 
    114 H114       35.3818  -48.0128  -57.1067 H         1 UNK         0.0798 
    115 H115       36.2449  -47.6543  -55.6254 H         1 UNK         0.0798 
    116 H116       34.5552  -47.2009  -55.7723 H         1 UNK         0.0798 
    117 H117       33.7093  -49.0300  -53.7233 H         1 UNK         0.3079 
    118 H118       35.6894  -49.9874  -51.0285 H         1 UNK         0.0794 
    119 H119       36.9356  -47.8350  -51.2421 H         1 UNK         0.0786 
    120 H120       35.6661  -47.7018  -50.0383 H         1 UNK         0.0786 
    121 H121       35.4466  -46.9888  -51.6377 H         1 UNK         0.0786 
    122 H122       33.3822  -48.2552  -51.1790 H         1 UNK         0.3032 
    123 H123       31.0015  -50.6849  -51.8706 H         1 UNK         0.1094 
    124 H124       31.3661  -51.3159  -49.4823 H         1 UNK         0.0794 
    125 H125       31.5070  -49.6181  -49.0456 H         1 UNK         0.0794 
    126 H126       29.9803  -50.2535  -49.6592 H         1 UNK         0.0794 
    127 H127       30.4224  -48.1783  -50.8708 H         1 UNK         0.3016 
@<TRIPOS>BOND
     1    1    2 1    
     2    1   67 1    
     3    1   68 1    
     4    1   69 1    
     5    2    3 2    
     6    2    4 am   BACKBONE|DICT|INTERRES
     7    4    5 1    
     8    4   70 1    
     9    5    6 1    
    10    5   65 1    
    11    5   71 1    
    12    6    7 1    
    13    6   72 1    
    14    6   73 1    
    15    7    8 1    
    16    8    9 1    
    17    8   74 1    
    18    8   75 1    
    19    9   10 ar   
    20    9   14 ar   
    21   10   11 ar   
    22   10   76 1    
    23   11   12 ar   
    24   11   48 1    
    25   12   13 ar   
    26   12   77 1    
    27   13   14 ar   
    28   13   15 1    
    29   14   78 1    
    30   15   16 1    
    31   15   79 1    
    32   15   80 1    
    33   16   17 1    
    34   17   18 1    
    35   17   81 1    
    36   17   82 1    
    37   18   19 1    
    38   18   22 1    
    39   18   83 1    
    40   19   20 am   BACKBONE|DICT|INTERRES
    41   19   21 2    
    42   20   84 1    
    43   20   85 1    
    44   22   23 am   BACKBONE|DICT|INTERRES
    45   22   86 1    
    46   23   24 2    
    47   23   25 1    
    48   25   26 1    
    49   25   27 1    
    50   25   87 1    
    51   26   88 1    
    52   26   89 1    
    53   26   90 1    
    54   27   28 am   BACKBONE|DICT|INTERRES
    55   27   91 1    
    56   28   29 2    
    57   28   30 1    
    58   30   31 1    
    59   30   32 1    
    60   30   92 1    
    61   31   93 1    
    62   31   94 1    
    63   31   95 1    
    64   32   33 am   BACKBONE|DICT|INTERRES
    65   32   96 1    
    66   33   34 2    
    67   33   35 1    
    68   35   36 1    
    69   35   37 1    
    70   35   97 1    
    71   36   98 1    
    72   36   99 1    
    73   36  100 1    
    74   37   38 am   BACKBONE|DICT|INTERRES
    75   37  101 1    
    76   38   39 2    
    77   38   40 1    
    78   40   41 1    
    79   40   42 1    
    80   40  102 1    
    81   41  103 1    
    82   41  104 1    
    83   41  105 1    
    84   42   43 am   BACKBONE|DICT|INTERRES
    85   42  106 1    
    86   43   44 2    
    87   43   45 1    
    88   45   46 1    
    89   45   49 1    
    90   45  107 1    
    91   46   47 1    
    92   46  108 1    
    93   46  109 1    
    94   47   48 1    
    95   48  110 1    
    96   48  111 1    
    97   49   50 am   BACKBONE|DICT|INTERRES
    98   49  112 1    
    99   50   51 2    
   100   50   52 1    
   101   52   53 1    
   102   52   54 1    
   103   52  113 1    
   104   53  114 1    
   105   53  115 1    
   106   53  116 1    
   107   54   55 am   BACKBONE|DICT|INTERRES
   108   54  117 1    
   109   55   56 2    
   110   55   57 1    
   111   57   58 1    
   112   57   59 1    
   113   57  118 1    
   114   58  119 1    
   115   58  120 1    
   116   58  121 1    
   117   59   60 am   BACKBONE|DICT|INTERRES
   118   59  122 1    
   119   60   61 2    
   120   60   62 1    
   121   62   63 1    
   122   62   64 1    
   123   62  123 1    
   124   63  124 1    
   125   63  125 1    
   126   63  126 1    
   127   64   65 am   BACKBONE|DICT|INTERRES
   128   64  127 1    
   129   65   66 2    
@<TRIPOS>SUBSTRUCTURE
     1 UNK         1 GROUP             0       ****    0 ROOT    
