@<TRIPOS>MOLECULE
3R134
127   129    1
SMALL
USER_CHARGES


@<TRIPOS>ATOM
      1 CA         31.8297  -44.5395  -49.8769 C.3       0 UNK        -0.1968 
      2 C          33.2800  -44.5172  -50.3345 C.2       0 UNK         0.4852 
      3 O          34.1716  -44.8409  -49.5482 O.2       0 UNK        -0.5359 
      4 N          33.5254  -44.1224  -51.5913 N.am      1 UNK        -0.4300 
      5 CA         34.8691  -43.9811  -52.1704 C.3       1 UNK         0.0863 
      6 C6         34.8926  -43.0423  -53.4061 C.3       11 UNK        -0.0953 
      7 S7         34.0571  -41.4428  -53.1020 S.3       11 UNK        -0.2369 
      8 C8         33.0685  -41.1900  -54.6180 C.3       11 UNK         0.0226 
      9 C9         32.1982  -42.3879  -54.9809 C.ar      11 UNK        -0.0699 
     10 C10        31.2459  -42.8760  -54.0809 C.ar      11 UNK        -0.0804 
     11 C11        30.4991  -44.0146  -54.3948 C.ar      11 UNK        -0.0871 
     12 C12        30.6948  -44.6532  -55.6219 C.ar      11 UNK        -0.1008 
     13 C13        31.6081  -44.1478  -56.5525 C.ar      11 UNK        -0.0735 
     14 C14        32.3629  -43.0194  -56.2187 C.ar      11 UNK        -0.0945 
     15 C15        31.8172  -44.8243  -57.9050 C.3       11 UNK         0.0169 
     16 S16        30.2753  -45.4091  -58.6880 S.3       11 UNK        -0.2669 
     17 C17        29.3879  -43.8429  -59.0106 C.3       11 UNK        -0.0850 
     18 CA         28.2747  -43.5321  -57.9720 C.3       10 UNK         0.0855 
     19 C          27.5702  -42.1822  -58.2935 C.2       10 UNK         0.5543 
     20 N          26.2636  -42.1508  -58.5271 N.am      10 UNK        -0.7343 
     21 O          28.2223  -41.1417  -58.3275 O.2       10 UNK        -0.5027 
     22 N          27.3602  -44.6715  -57.7947 N.am      10 UNK        -0.4495 
     23 C          26.6409  -44.9332  -56.6994 C.2       10 UNK         0.4903 
     24 O          26.6499  -44.2239  -55.6940 O.2       10 UNK        -0.4860 
     25 CA         25.7743  -46.2088  -56.6949 C.3       9 UNK         0.0227 
     26 CB         24.3092  -45.8795  -57.0422 C.3       9 UNK        -0.1964 
     27 N          26.2829  -47.3262  -57.5099 N.am      9 UNK        -0.4231 
     28 C          26.3984  -47.4107  -58.8445 C.2       9 UNK         0.5014 
     29 O          26.0974  -46.4981  -59.6146 O.2       9 UNK        -0.5270 
     30 CA         26.9834  -48.7052  -59.4302 C.3       8 UNK         0.0284 
     31 CB         28.3993  -48.4487  -59.9730 C.3       8 UNK        -0.1977 
     32 N          27.0544  -49.7941  -58.4543 N.am      8 UNK        -0.4342 
     33 C          26.1541  -50.7753  -58.3297 C.2       8 UNK         0.5039 
     34 O          25.1064  -50.8300  -58.9747 O.2       8 UNK        -0.5547 
     35 CA         26.4870  -51.8994  -57.3402 C.3       7 UNK         0.0281 
     36 CB         27.6551  -52.7550  -57.8625 C.3       7 UNK        -0.1963 
     37 N          26.8198  -51.3934  -56.0048 N.am      7 UNK        -0.4444 
     38 C          26.1889  -51.7629  -54.8802 C.2       7 UNK         0.5104 
     39 O          25.1934  -52.4884  -54.8631 O.2       7 UNK        -0.5100 
     40 CA         26.7680  -51.2878  -53.5330 C.3       6 UNK         0.0396 
     41 CB         27.4599  -52.4560  -52.8115 C.3       6 UNK        -0.1801 
     42 N          27.7196  -50.1828  -53.6500 N.am      6 UNK        -0.4747 
     43 C          27.3773  -48.9008  -53.8436 C.2       6 UNK         0.5012 
     44 O          26.2128  -48.5138  -53.9317 O.2       6 UNK        -0.5003 
     45 CA         28.5276  -47.8799  -53.9831 C.3       5 UNK         0.0782 
     46 C46        28.7724  -47.1926  -52.6145 C.3       11 UNK        -0.0868 
     47 S47        30.1909  -46.0522  -52.6079 S.3       11 UNK        -0.2515 
     48 C48        29.4946  -44.5804  -53.4085 C.3       11 UNK         0.0199 
     49 N          29.7520  -48.4570  -54.5572 N.am      5 UNK        -0.4607 
     50 C          29.8355  -49.0848  -55.7392 C.2       4 UNK         0.5031 
     51 O          28.8734  -49.2448  -56.4898 O.2       4 UNK        -0.5119 
     52 CA         31.1919  -49.6811  -56.1488 C.3       4 UNK         0.0263 
     53 CB         31.9157  -48.7176  -57.1018 C.3       4 UNK        -0.1967 
     54 N          32.0868  -50.0103  -55.0362 N.am      4 UNK        -0.4237 
     55 C          31.8177  -50.8006  -53.9848 C.2       3 UNK         0.4908 
     56 O          30.7407  -51.3756  -53.8183 O.2       3 UNK        -0.5102 
     57 CA         32.9325  -50.9629  -52.9289 C.3       3 UNK         0.0241 
     58 CB         33.5505  -52.3682  -53.0141 C.3       3 UNK        -0.1971 
     59 N          34.0033  -49.9590  -53.0274 N.am      3 UNK        -0.4139 
     60 C          33.8390  -48.6497  -52.7926 C.2       2 UNK         0.5016 
     61 O          32.7757  -48.1591  -52.4067 O.2       2 UNK        -0.5319 
     62 CA         35.0341  -47.7347  -53.0964 C.3       2 UNK         0.0286 
     63 CB         35.4105  -47.7824  -54.5928 C.3       2 UNK        -0.1963 
     64 N          34.6688  -46.3710  -52.7262 N.am      2 UNK        -0.4790 
     65 C          35.5030  -45.3443  -52.5240 C.2       1 UNK         0.5024 
     66 O          36.7281  -45.4355  -52.6166 O.2       1 UNK        -0.4888 
     67 H67        31.1780  -44.0087  -50.5704 H         1 UNK         0.0892 
     68 H68        31.4790  -45.5679  -49.7937 H         1 UNK         0.0892 
     69 H69        31.7348  -44.0660  -48.9001 H         1 UNK         0.0892 
     70 H70        32.7603  -43.8739  -52.2019 H         1 UNK         0.3107 
     71 H71        35.5076  -43.5279  -51.4088 H         1 UNK         0.0773 
     72 H72        35.9234  -42.8270  -53.6931 H         1 UNK         0.0680 
     73 H73        34.4455  -43.5409  -54.2664 H         1 UNK         0.0680 
     74 H74        33.7500  -40.9461  -55.4345 H         1 UNK         0.0650 
     75 H75        32.4303  -40.3164  -54.4802 H         1 UNK         0.0650 
     76 H76        31.1060  -42.3812  -53.1295 H         1 UNK         0.1397 
     77 H77        30.1232  -45.5410  -55.8555 H         1 UNK         0.1363 
     78 H78        33.0918  -42.6385  -56.9209 H         1 UNK         0.1355 
     79 H79        32.4839  -45.6756  -57.7666 H         1 UNK         0.0707 
     80 H80        32.3222  -44.1499  -58.5983 H         1 UNK         0.0707 
     81 H81        30.1117  -43.0264  -59.0482 H         1 UNK         0.1034 
     82 H82        28.9576  -43.9067  -60.0116 H         1 UNK         0.1034 
     83 H83        28.7663  -43.3644  -57.0138 H         1 UNK         0.0482 
     84 H84        25.7239  -43.0008  -58.5026 H         1 UNK         0.3460 
     85 H85        25.8168  -41.2708  -58.7313 H         1 UNK         0.3460 
     86 H86        27.2319  -45.2785  -58.5972 H         1 UNK         0.2989 
     87 H87        25.7833  -46.5727  -55.6677 H         1 UNK         0.0559 
     88 H88        23.6749  -46.7621  -56.9599 H         1 UNK         0.0848 
     89 H89        24.2052  -45.4845  -58.0530 H         1 UNK         0.0848 
     90 H90        23.9079  -45.1287  -56.3602 H         1 UNK         0.0848 
     91 H91        26.6080  -48.1251  -56.9834 H         1 UNK         0.3144 
     92 H92        26.3475  -48.9978  -60.2685 H         1 UNK         0.0727 
     93 H93        29.0893  -48.1681  -59.1767 H         1 UNK         0.0790 
     94 H94        28.4016  -47.6405  -60.7060 H         1 UNK         0.0790 
     95 H95        28.8007  -49.3339  -60.4664 H         1 UNK         0.0790 
     96 H96        27.8637  -49.7769  -57.8345 H         1 UNK         0.3215 
     97 H97        25.6059  -52.5434  -57.2958 H         1 UNK         0.0863 
     98 H98        27.8219  -53.6233  -57.2248 H         1 UNK         0.0808 
     99 H99        28.5875  -52.1907  -57.9063 H         1 UNK         0.0808 
    100 H100       27.4496  -53.1270  -58.8673 H         1 UNK         0.0808 
    101 H101       27.6038  -50.7552  -55.9328 H         1 UNK         0.3118 
    102 H102       25.9292  -50.9598  -52.9153 H         1 UNK         0.0546 
    103 H103       28.3128  -52.8313  -53.3787 H         1 UNK         0.0828 
    104 H104       26.7723  -53.2904  -52.6663 H         1 UNK         0.0828 
    105 H105       27.8180  -52.1585  -51.8259 H         1 UNK         0.0828 
    106 H106       28.7041  -50.4246  -53.6127 H         1 UNK         0.3005 
    107 H107       28.1843  -47.1213  -54.6890 H         1 UNK         0.1257 
    108 H108       27.8834  -46.6477  -52.2900 H         1 UNK         0.0775 
    109 H109       28.9662  -47.9414  -51.8436 H         1 UNK         0.0775 
    110 H110       28.5721  -44.8267  -53.9341 H         1 UNK         0.0840 
    111 H111       29.2287  -43.8446  -52.6481 H         1 UNK         0.0840 
    112 H112       30.5883  -48.3583  -53.9967 H         1 UNK         0.2987 
    113 H113       30.9853  -50.6096  -56.6846 H         1 UNK         0.0785 
    114 H114       31.2858  -48.4602  -57.9546 H         1 UNK         0.0798 
    115 H115       32.8294  -49.1593  -57.4996 H         1 UNK         0.0798 
    116 H116       32.1809  -47.7855  -56.6012 H         1 UNK         0.0798 
    117 H117       33.0038  -49.5926  -55.0706 H         1 UNK         0.3079 
    118 H118       32.4612  -50.8552  -51.9495 H         1 UNK         0.0794 
    119 H119       34.2792  -52.5309  -52.2196 H         1 UNK         0.0786 
    120 H120       34.0504  -52.5331  -53.9694 H         1 UNK         0.0786 
    121 H121       32.7850  -53.1387  -52.9101 H         1 UNK         0.0786 
    122 H122       34.9070  -50.2919  -53.3330 H         1 UNK         0.3032 
    123 H123       35.8791  -48.0592  -52.4851 H         1 UNK         0.1094 
    124 H124       34.5789  -47.4702  -55.2262 H         1 UNK         0.0794 
    125 H125       36.2549  -47.1289  -54.8123 H         1 UNK         0.0794 
    126 H126       35.7030  -48.7860  -54.9029 H         1 UNK         0.0794 
    127 H127       33.6754  -46.2473  -52.5635 H         1 UNK         0.3016 
@<TRIPOS>BOND
     1    1    2 1    
     2    1   67 1    
     3    1   68 1    
     4    1   69 1    
     5    2    3 2    
     6    2    4 am   BACKBONE|DICT|INTERRES
     7    4    5 1    
     8    4   70 1    
     9    5    6 1    
    10    5   65 1    
    11    5   71 1    
    12    6    7 1    
    13    6   72 1    
    14    6   73 1    
    15    7    8 1    
    16    8    9 1    
    17    8   74 1    
    18    8   75 1    
    19    9   10 ar   
    20    9   14 ar   
    21   10   11 ar   
    22   10   76 1    
    23   11   12 ar   
    24   11   48 1    
    25   12   13 ar   
    26   12   77 1    
    27   13   14 ar   
    28   13   15 1    
    29   14   78 1    
    30   15   16 1    
    31   15   79 1    
    32   15   80 1    
    33   16   17 1    
    34   17   18 1    
    35   17   81 1    
    36   17   82 1    
    37   18   19 1    
    38   18   22 1    
    39   18   83 1    
    40   19   20 am   BACKBONE|DICT|INTERRES
    41   19   21 2    
    42   20   84 1    
    43   20   85 1    
    44   22   23 am   BACKBONE|DICT|INTERRES
    45   22   86 1    
    46   23   24 2    
    47   23   25 1    
    48   25   26 1    
    49   25   27 1    
    50   25   87 1    
    51   26   88 1    
    52   26   89 1    
    53   26   90 1    
    54   27   28 am   BACKBONE|DICT|INTERRES
    55   27   91 1    
    56   28   29 2    
    57   28   30 1    
    58   30   31 1    
    59   30   32 1    
    60   30   92 1    
    61   31   93 1    
    62   31   94 1    
    63   31   95 1    
    64   32   33 am   BACKBONE|DICT|INTERRES
    65   32   96 1    
    66   33   34 2    
    67   33   35 1    
    68   35   36 1    
    69   35   37 1    
    70   35   97 1    
    71   36   98 1    
    72   36   99 1    
    73   36  100 1    
    74   37   38 am   BACKBONE|DICT|INTERRES
    75   37  101 1    
    76   38   39 2    
    77   38   40 1    
    78   40   41 1    
    79   40   42 1    
    80   40  102 1    
    81   41  103 1    
    82   41  104 1    
    83   41  105 1    
    84   42   43 am   BACKBONE|DICT|INTERRES
    85   42  106 1    
    86   43   44 2    
    87   43   45 1    
    88   45   46 1    
    89   45   49 1    
    90   45  107 1    
    91   46   47 1    
    92   46  108 1    
    93   46  109 1    
    94   47   48 1    
    95   48  110 1    
    96   48  111 1    
    97   49   50 am   BACKBONE|DICT|INTERRES
    98   49  112 1    
    99   50   51 2    
   100   50   52 1    
   101   52   53 1    
   102   52   54 1    
   103   52  113 1    
   104   53  114 1    
   105   53  115 1    
   106   53  116 1    
   107   54   55 am   BACKBONE|DICT|INTERRES
   108   54  117 1    
   109   55   56 2    
   110   55   57 1    
   111   57   58 1    
   112   57   59 1    
   113   57  118 1    
   114   58  119 1    
   115   58  120 1    
   116   58  121 1    
   117   59   60 am   BACKBONE|DICT|INTERRES
   118   59  122 1    
   119   60   61 2    
   120   60   62 1    
   121   62   63 1    
   122   62   64 1    
   123   62  123 1    
   124   63  124 1    
   125   63  125 1    
   126   63  126 1    
   127   64   65 am   BACKBONE|DICT|INTERRES
   128   64  127 1    
   129   65   66 2    
@<TRIPOS>SUBSTRUCTURE
     1 UNK         1 GROUP             0       ****    0 ROOT    
