@<TRIPOS>MOLECULE
3R134
127   129    1
SMALL
USER_CHARGES


@<TRIPOS>ATOM
      1 CA         30.9139  -46.0766  -49.9376 C.3       0 UNK        -0.1968 
      2 C          32.1129  -46.0141  -50.8713 C.2       0 UNK         0.4852 
      3 O          32.1450  -46.7417  -51.8646 O.2       0 UNK        -0.5359 
      4 N          33.1001  -45.1636  -50.5523 N.am      1 UNK        -0.4300 
      5 CA         34.3392  -44.9312  -51.3082 C.3       1 UNK         0.0863 
      6 C6         34.1011  -44.2087  -52.6641 C.3       11 UNK        -0.0953 
      7 S7         33.3967  -42.5414  -52.4256 S.3       11 UNK        -0.2369 
      8 C8         33.6535  -41.7909  -54.0651 C.3       11 UNK         0.0226 
      9 C9         32.7805  -42.4500  -55.1216 C.ar      11 UNK        -0.0699 
     10 C10        33.2906  -43.4920  -55.8995 C.ar      11 UNK        -0.0804 
     11 C11        32.4746  -44.1530  -56.8206 C.ar      11 UNK        -0.0871 
     12 C12        31.1552  -43.7272  -57.0041 C.ar      11 UNK        -0.1008 
     13 C13        30.6344  -42.6842  -56.2335 C.ar      11 UNK        -0.0735 
     14 C14        31.4527  -42.0463  -55.2951 C.ar      11 UNK        -0.0945 
     15 C15        29.1768  -42.2784  -56.3865 C.3       11 UNK         0.0169 
     16 S16        28.0778  -43.5087  -55.6141 S.3       11 UNK        -0.2669 
     17 C17        26.5014  -42.5876  -55.5348 C.3       11 UNK        -0.0850 
     18 CA         25.4563  -42.9965  -56.6071 C.3       10 UNK         0.0855 
     19 C          25.8050  -42.4671  -58.0305 C.2       10 UNK         0.5543 
     20 N          25.7392  -43.2702  -59.0858 N.am      10 UNK        -0.7343 
     21 O          26.1270  -41.2916  -58.1847 O.2       10 UNK        -0.5027 
     22 N          25.1467  -44.4335  -56.5422 N.am      10 UNK        -0.4495 
     23 C          23.9471  -44.9729  -56.7897 C.2       10 UNK         0.4903 
     24 O          22.9334  -44.3107  -57.0188 O.2       10 UNK        -0.4860 
     25 CA         23.8823  -46.5151  -56.7958 C.3       9 UNK         0.0227 
     26 CB         22.5521  -47.0545  -57.3622 C.3       9 UNK        -0.1964 
     27 N          25.0173  -47.1475  -57.4829 N.am      9 UNK        -0.4231 
     28 C          25.4350  -46.9198  -58.7406 C.2       9 UNK         0.5014 
     29 O          24.9224  -46.0890  -59.4913 O.2       9 UNK        -0.5270 
     30 CA         26.6425  -47.7240  -59.2552 C.3       8 UNK         0.0284 
     31 CB         27.8701  -46.8073  -59.4029 C.3       8 UNK        -0.1977 
     32 N          26.9775  -48.8629  -58.3952 N.am      8 UNK        -0.4342 
     33 C          26.3398  -50.0442  -58.4279 C.2       8 UNK         0.5039 
     34 O          25.4510  -50.3111  -59.2376 O.2       8 UNK        -0.5547 
     35 CA         26.7347  -51.1105  -57.3863 C.3       7 UNK         0.0281 
     36 CB         27.6495  -52.1685  -58.0237 C.3       7 UNK        -0.1963 
     37 N          27.3886  -50.5675  -56.1932 N.am      7 UNK        -0.4444 
     38 C          26.8050  -49.7559  -55.2976 C.2       7 UNK         0.5104 
     39 O          25.6244  -49.4119  -55.3556 O.2       7 UNK        -0.5100 
     40 CA         27.7076  -49.1649  -54.1966 C.3       6 UNK         0.0396 
     41 CB         27.6282  -50.0182  -52.9225 C.3       6 UNK        -0.1801 
     42 N          29.1112  -49.0130  -54.6019 N.am      6 UNK        -0.4747 
     43 C          29.5228  -48.2971  -55.6627 C.2       6 UNK         0.5012 
     44 O          28.7502  -47.6597  -56.3774 O.2       6 UNK        -0.5003 
     45 CA         31.0185  -48.3214  -56.0402 C.3       5 UNK         0.0782 
     46 C46        31.6869  -46.9962  -55.6162 C.3       11 UNK        -0.0868 
     47 S47        33.3171  -46.7599  -56.4032 S.3       11 UNK        -0.2515 
     48 C48        32.9950  -45.3799  -57.5551 C.3       11 UNK         0.0199 
     49 N          31.7442  -49.4764  -55.5068 N.am      5 UNK        -0.4607 
     50 C          31.4791  -50.7681  -55.7449 C.2       4 UNK         0.5031 
     51 O          30.6006  -51.1568  -56.5148 O.2       4 UNK        -0.5119 
     52 CA         32.2965  -51.7944  -54.9365 C.3       4 UNK         0.0263 
     53 CB         33.4874  -52.3022  -55.7637 C.3       4 UNK        -0.1967 
     54 N          32.7875  -51.2636  -53.6580 N.am      4 UNK        -0.4237 
     55 C          32.0184  -50.8111  -52.6578 C.2       3 UNK         0.4908 
     56 O          30.7891  -50.8718  -52.6662 O.2       3 UNK        -0.5102 
     57 CA         32.7226  -50.0989  -51.4928 C.3       3 UNK         0.0241 
     58 CB         33.2570  -51.0988  -50.4490 C.3       3 UNK        -0.1971 
     59 N          33.7470  -49.1362  -51.9276 N.am      3 UNK        -0.4139 
     60 C          34.9570  -49.3691  -52.4611 C.2       2 UNK         0.5016 
     61 O          35.3871  -50.5007  -52.6888 O.2       2 UNK        -0.5319 
     62 CA         35.8197  -48.1546  -52.8623 C.3       2 UNK         0.0286 
     63 CB         36.2117  -48.2337  -54.3477 C.3       2 UNK        -0.1963 
     64 N          35.1703  -46.8634  -52.6091 N.am      2 UNK        -0.4790 
     65 C          35.1547  -46.2386  -51.4226 C.2       1 UNK         0.5024 
     66 O          35.7305  -46.6708  -50.4228 O.2       1 UNK        -0.4888 
     67 H67        30.8041  -47.0838  -49.5366 H         1 UNK         0.0892 
     68 H68        30.0042  -45.8255  -50.4823 H         1 UNK         0.0892 
     69 H69        31.0106  -45.3854  -49.1007 H         1 UNK         0.0892 
     70 H70        33.0156  -44.6177  -49.7065 H         1 UNK         0.3107 
     71 H71        34.9478  -44.2674  -50.6916 H         1 UNK         0.0773 
     72 H72        33.4260  -44.7806  -53.3034 H         1 UNK         0.0680 
     73 H73        35.0409  -44.1019  -53.2089 H         1 UNK         0.0680 
     74 H74        33.4194  -40.7270  -54.0065 H         1 UNK         0.0650 
     75 H75        34.7078  -41.8573  -54.3380 H         1 UNK         0.0650 
     76 H76        34.3079  -43.8275  -55.7506 H         1 UNK         0.1397 
     77 H77        30.5123  -44.2414  -57.7059 H         1 UNK         0.1363 
     78 H78        31.0512  -41.2522  -54.6805 H         1 UNK         0.1355 
     79 H79        28.9271  -42.1797  -57.4440 H         1 UNK         0.0707 
     80 H80        29.0110  -41.2994  -55.9343 H         1 UNK         0.0707 
     81 H81        26.6897  -41.5130  -55.5680 H         1 UNK         0.1034 
     82 H82        26.0765  -42.7650  -54.5457 H         1 UNK         0.1034 
     83 H83        24.5446  -42.4571  -56.3431 H         1 UNK         0.0482 
     84 H84        25.4292  -44.2322  -59.0034 H         1 UNK         0.3460 
     85 H85        25.9626  -42.8979  -59.9945 H         1 UNK         0.3460 
     86 H86        25.9368  -45.0424  -56.3840 H         1 UNK         0.2989 
     87 H87        23.9467  -46.8265  -55.7522 H         1 UNK         0.0559 
     88 H88        22.5172  -48.1433  -57.3222 H         1 UNK         0.0848 
     89 H89        22.4033  -46.7523  -58.3995 H         1 UNK         0.0848 
     90 H90        21.7015  -46.6835  -56.7891 H         1 UNK         0.0848 
     91 H91        25.5023  -47.8561  -56.9451 H         1 UNK         0.3144 
     92 H92        26.3858  -48.1000  -60.2480 H         1 UNK         0.0727 
     93 H93        28.7518  -47.3652  -59.7183 H         1 UNK         0.0790 
     94 H94        28.1102  -46.2924  -58.4723 H         1 UNK         0.0790 
     95 H95        27.6885  -46.0374  -60.1540 H         1 UNK         0.0790 
     96 H96        27.6795  -48.6912  -57.6811 H         1 UNK         0.3215 
     97 H97        25.8147  -51.6029  -57.0639 H         1 UNK         0.0863 
     98 H98        27.8860  -52.9670  -57.3202 H         1 UNK         0.0808 
     99 H99        28.5897  -51.7343  -58.3664 H         1 UNK         0.0808 
    100 H100       27.1699  -52.6305  -58.8878 H         1 UNK         0.0808 
    101 H101       28.3750  -50.7728  -56.0848 H         1 UNK         0.3118 
    102 H102       27.3273  -48.1683  -53.9635 H         1 UNK         0.0546 
    103 H103       26.5973  -50.1129  -52.5785 H         1 UNK         0.0828 
    104 H104       28.2012  -49.5723  -52.1092 H         1 UNK         0.0828 
    105 H105       28.0116  -51.0259  -53.0878 H         1 UNK         0.0828 
    106 H106       29.7962  -49.5296  -54.0610 H         1 UNK         0.3005 
    107 H107       31.0515  -48.3939  -57.1296 H         1 UNK         0.1257 
    108 H108       31.8184  -46.9606  -54.5334 H         1 UNK         0.0775 
    109 H109       31.0405  -46.1523  -55.8554 H         1 UNK         0.0775 
    110 H110       33.9183  -45.1261  -58.0776 H         1 UNK         0.0840 
    111 H111       32.2878  -45.7091  -58.3182 H         1 UNK         0.0840 
    112 H112       32.4927  -49.2611  -54.8664 H         1 UNK         0.2987 
    113 H113       31.6387  -52.6380  -54.7175 H         1 UNK         0.0785 
    114 H114       34.1924  -51.5010  -55.9903 H         1 UNK         0.0798 
    115 H115       33.1526  -52.7217  -56.7136 H         1 UNK         0.0798 
    116 H116       34.0300  -53.0876  -55.2372 H         1 UNK         0.0798 
    117 H117       33.7941  -51.1747  -53.5411 H         1 UNK         0.3079 
    118 H118       31.9600  -49.4956  -50.9971 H         1 UNK         0.0794 
    119 H119       33.9972  -51.7796  -50.8698 H         1 UNK         0.0786 
    120 H120       32.4467  -51.7115  -50.0519 H         1 UNK         0.0786 
    121 H121       33.7163  -50.5827  -49.6060 H         1 UNK         0.0786 
    122 H122       33.4434  -48.1664  -51.8729 H         1 UNK         0.3032 
    123 H123       36.7364  -48.2098  -52.2705 H         1 UNK         0.1094 
    124 H124       35.3367  -48.2966  -54.9935 H         1 UNK         0.0794 
    125 H125       36.7975  -47.3670  -54.6546 H         1 UNK         0.0794 
    126 H126       36.8197  -49.1179  -54.5440 H         1 UNK         0.0794 
    127 H127       34.6359  -46.4676  -53.3701 H         1 UNK         0.3016 
@<TRIPOS>BOND
     1    1    2 1    
     2    1   67 1    
     3    1   68 1    
     4    1   69 1    
     5    2    3 2    
     6    2    4 am   BACKBONE|DICT|INTERRES
     7    4    5 1    
     8    4   70 1    
     9    5    6 1    
    10    5   65 1    
    11    5   71 1    
    12    6    7 1    
    13    6   72 1    
    14    6   73 1    
    15    7    8 1    
    16    8    9 1    
    17    8   74 1    
    18    8   75 1    
    19    9   10 ar   
    20    9   14 ar   
    21   10   11 ar   
    22   10   76 1    
    23   11   12 ar   
    24   11   48 1    
    25   12   13 ar   
    26   12   77 1    
    27   13   14 ar   
    28   13   15 1    
    29   14   78 1    
    30   15   16 1    
    31   15   79 1    
    32   15   80 1    
    33   16   17 1    
    34   17   18 1    
    35   17   81 1    
    36   17   82 1    
    37   18   19 1    
    38   18   22 1    
    39   18   83 1    
    40   19   20 am   BACKBONE|DICT|INTERRES
    41   19   21 2    
    42   20   84 1    
    43   20   85 1    
    44   22   23 am   BACKBONE|DICT|INTERRES
    45   22   86 1    
    46   23   24 2    
    47   23   25 1    
    48   25   26 1    
    49   25   27 1    
    50   25   87 1    
    51   26   88 1    
    52   26   89 1    
    53   26   90 1    
    54   27   28 am   BACKBONE|DICT|INTERRES
    55   27   91 1    
    56   28   29 2    
    57   28   30 1    
    58   30   31 1    
    59   30   32 1    
    60   30   92 1    
    61   31   93 1    
    62   31   94 1    
    63   31   95 1    
    64   32   33 am   BACKBONE|DICT|INTERRES
    65   32   96 1    
    66   33   34 2    
    67   33   35 1    
    68   35   36 1    
    69   35   37 1    
    70   35   97 1    
    71   36   98 1    
    72   36   99 1    
    73   36  100 1    
    74   37   38 am   BACKBONE|DICT|INTERRES
    75   37  101 1    
    76   38   39 2    
    77   38   40 1    
    78   40   41 1    
    79   40   42 1    
    80   40  102 1    
    81   41  103 1    
    82   41  104 1    
    83   41  105 1    
    84   42   43 am   BACKBONE|DICT|INTERRES
    85   42  106 1    
    86   43   44 2    
    87   43   45 1    
    88   45   46 1    
    89   45   49 1    
    90   45  107 1    
    91   46   47 1    
    92   46  108 1    
    93   46  109 1    
    94   47   48 1    
    95   48  110 1    
    96   48  111 1    
    97   49   50 am   BACKBONE|DICT|INTERRES
    98   49  112 1    
    99   50   51 2    
   100   50   52 1    
   101   52   53 1    
   102   52   54 1    
   103   52  113 1    
   104   53  114 1    
   105   53  115 1    
   106   53  116 1    
   107   54   55 am   BACKBONE|DICT|INTERRES
   108   54  117 1    
   109   55   56 2    
   110   55   57 1    
   111   57   58 1    
   112   57   59 1    
   113   57  118 1    
   114   58  119 1    
   115   58  120 1    
   116   58  121 1    
   117   59   60 am   BACKBONE|DICT|INTERRES
   118   59  122 1    
   119   60   61 2    
   120   60   62 1    
   121   62   63 1    
   122   62   64 1    
   123   62  123 1    
   124   63  124 1    
   125   63  125 1    
   126   63  126 1    
   127   64   65 am   BACKBONE|DICT|INTERRES
   128   64  127 1    
   129   65   66 2    
@<TRIPOS>SUBSTRUCTURE
     1 UNK         1 GROUP             0       ****    0 ROOT    
