@<TRIPOS>MOLECULE
3R134
127   129    1
SMALL
USER_CHARGES


@<TRIPOS>ATOM
      1 CA         37.0113  -44.9129  -52.2740 C.3       0 UNK        -0.1968 
      2 C          35.6439  -45.5542  -52.4557 C.2       0 UNK         0.4852 
      3 O          35.4703  -46.3767  -53.3536 O.2       0 UNK        -0.5359 
      4 N          34.6749  -45.1882  -51.6059 N.am      1 UNK        -0.4300 
      5 CA         33.2879  -45.6745  -51.6483 C.3       1 UNK         0.0863 
      6 C6         32.2973  -44.6807  -50.9906 C.3       11 UNK        -0.0953 
      7 S7         32.4409  -42.9779  -51.6403 S.3       11 UNK        -0.2369 
      8 C8         30.9302  -42.7973  -52.6545 C.3       11 UNK         0.0226 
      9 C9         31.0146  -43.2755  -54.1079 C.ar      11 UNK        -0.0699 
     10 C10        32.1422  -43.9069  -54.6514 C.ar      11 UNK        -0.0804 
     11 C11        32.1544  -44.3297  -55.9834 C.ar      11 UNK        -0.0871 
     12 C12        31.0444  -44.0762  -56.7910 C.ar      11 UNK        -0.1008 
     13 C13        29.9138  -43.4356  -56.2793 C.ar      11 UNK        -0.0735 
     14 C14        29.9059  -43.0524  -54.9316 C.ar      11 UNK        -0.0945 
     15 C15        28.7325  -43.2086  -57.2238 C.3       11 UNK         0.0169 
     16 S16        27.5202  -41.9432  -56.7083 S.3       11 UNK        -0.2669 
     17 C17        26.4266  -42.9198  -55.6156 C.3       11 UNK        -0.0850 
     18 CA         25.0685  -43.3084  -56.2707 C.3       10 UNK         0.0855 
     19 C          24.0722  -42.1220  -56.4186 C.2       10 UNK         0.5543 
     20 N          23.2690  -42.0591  -57.4751 N.am      10 UNK        -0.7343 
     21 O          24.0021  -41.2548  -55.5511 O.2       10 UNK        -0.5027 
     22 N          25.2359  -44.0986  -57.5023 N.am      10 UNK        -0.4495 
     23 C          25.6080  -45.3811  -57.5347 C.2       10 UNK         0.4903 
     24 O          25.8281  -46.0491  -56.5235 O.2       10 UNK        -0.4860 
     25 CA         25.7573  -46.0225  -58.9232 C.3       9 UNK         0.0227 
     26 CB         26.7640  -45.2736  -59.8179 C.3       9 UNK        -0.1964 
     27 N          26.2060  -47.4005  -58.7532 N.am      9 UNK        -0.4231 
     28 C          25.7737  -48.4647  -59.4355 C.2       9 UNK         0.5014 
     29 O          24.9762  -48.4029  -60.3727 O.2       9 UNK        -0.5270 
     30 CA         26.3227  -49.8376  -59.0065 C.3       8 UNK         0.0284 
     31 CB         27.5299  -50.2242  -59.8768 C.3       8 UNK        -0.1977 
     32 N          26.7143  -49.9022  -57.5954 N.am      8 UNK        -0.4342 
     33 C          25.8692  -49.8750  -56.5542 C.2       8 UNK         0.5039 
     34 O          24.6447  -49.8116  -56.6688 O.2       8 UNK        -0.5547 
     35 CA         26.4924  -49.9214  -55.1508 C.3       7 UNK         0.0281 
     36 CB         26.9096  -51.3559  -54.7840 C.3       7 UNK        -0.1963 
     37 N          27.6549  -49.0350  -55.0736 N.am      7 UNK        -0.4444 
     38 C          27.6741  -47.8454  -54.4559 C.2       7 UNK         0.5104 
     39 O          26.7465  -47.4228  -53.7642 O.2       7 UNK        -0.5100 
     40 CA         28.9413  -46.9791  -54.6053 C.3       6 UNK         0.0396 
     41 CB         29.6051  -46.7449  -53.2406 C.3       6 UNK        -0.1801 
     42 N          29.9365  -47.5513  -55.5138 N.am      6 UNK        -0.4747 
     43 C          29.9053  -47.4487  -56.8502 C.2       6 UNK         0.5012 
     44 O          29.0149  -46.8719  -57.4733 O.2       6 UNK        -0.5003 
     45 CA         31.0177  -48.1848  -57.6293 C.3       5 UNK         0.0782 
     46 C46        32.2423  -47.2778  -57.9129 C.3       11 UNK        -0.0868 
     47 S47        33.2357  -46.8547  -56.4341 S.3       11 UNK        -0.2515 
     48 C48        33.3757  -45.0400  -56.5520 C.3       11 UNK         0.0199 
     49 N          31.4087  -49.4584  -57.0123 N.am      5 UNK        -0.4607 
     50 C          30.5781  -50.4800  -56.7652 C.2       4 UNK         0.5031 
     51 O          29.3853  -50.4643  -57.0664 O.2       4 UNK        -0.5119 
     52 CA         31.1400  -51.7114  -56.0338 C.3       4 UNK         0.0263 
     53 CB         31.3771  -52.8562  -57.0311 C.3       4 UNK        -0.1967 
     54 N          32.3682  -51.4747  -55.2659 N.am      4 UNK        -0.4237 
     55 C          32.4884  -50.6287  -54.2338 C.2       3 UNK         0.4908 
     56 O          31.5867  -49.8800  -53.8460 O.2       3 UNK        -0.5102 
     57 CA         33.8566  -50.6050  -53.5429 C.3       3 UNK         0.0241 
     58 CB         34.9053  -49.8897  -54.4171 C.3       3 UNK        -0.1971 
     59 N          33.7237  -49.9163  -52.2648 N.am      3 UNK        -0.4139 
     60 C          34.5672  -49.9830  -51.2300 C.2       2 UNK         0.5016 
     61 O          35.5697  -50.7004  -51.2129 O.2       2 UNK        -0.5319 
     62 CA         34.2523  -49.0598  -50.0333 C.3       2 UNK         0.0286 
     63 CB         35.2879  -49.1782  -48.8991 C.3       2 UNK        -0.1963 
     64 N          34.1796  -47.6596  -50.4627 N.am      2 UNK        -0.4790 
     65 C          33.1234  -47.0936  -51.0640 C.2       1 UNK         0.5024 
     66 O          32.0477  -47.6761  -51.1969 O.2       1 UNK        -0.4888 
     67 H67        37.0228  -44.2014  -51.4485 H         1 UNK         0.0892 
     68 H68        37.7609  -45.6781  -52.0738 H         1 UNK         0.0892 
     69 H69        37.2992  -44.3831  -53.1817 H         1 UNK         0.0892 
     70 H70        34.8703  -44.4979  -50.8942 H         1 UNK         0.3107 
     71 H71        33.0022  -45.7798  -52.6952 H         1 UNK         0.0773 
     72 H72        31.2699  -45.0271  -51.1154 H         1 UNK         0.0680 
     73 H73        32.4686  -44.6357  -49.9135 H         1 UNK         0.0680 
     74 H74        30.6785  -41.7359  -52.6659 H         1 UNK         0.0650 
     75 H75        30.0980  -43.2982  -52.1581 H         1 UNK         0.0650 
     76 H76        33.0237  -44.0711  -54.0520 H         1 UNK         0.1397 
     77 H77        31.0535  -44.3829  -57.8271 H         1 UNK         0.1363 
     78 H78        29.0389  -42.5648  -54.5109 H         1 UNK         0.1355 
     79 H79        29.1131  -42.9123  -58.2024 H         1 UNK         0.0707 
     80 H80        28.2255  -44.1612  -57.3693 H         1 UNK         0.0707 
     81 H81        26.9481  -43.8235  -55.2962 H         1 UNK         0.1034 
     82 H82        26.2606  -42.3528  -54.6980 H         1 UNK         0.1034 
     83 H83        24.5606  -43.9586  -55.5557 H         1 UNK         0.0482 
     84 H84        23.2465  -42.7937  -58.1631 H         1 UNK         0.3460 
     85 H85        22.6255  -41.2866  -57.5501 H         1 UNK         0.3460 
     86 H86        25.0957  -43.5943  -58.3654 H         1 UNK         0.2989 
     87 H87        24.7723  -46.0051  -59.3938 H         1 UNK         0.0559 
     88 H88        27.7686  -45.2909  -59.3951 H         1 UNK         0.0848 
     89 H89        26.4838  -44.2299  -59.9612 H         1 UNK         0.0848 
     90 H90        26.8181  -45.7272  -60.8077 H         1 UNK         0.0848 
     91 H91        26.8360  -47.5388  -57.9708 H         1 UNK         0.3144 
     92 H92        25.5324  -50.5733  -59.1695 H         1 UNK         0.0727 
     93 H93        27.8890  -51.2250  -59.6356 H         1 UNK         0.0790 
     94 H94        28.3606  -49.5299  -59.7429 H         1 UNK         0.0790 
     95 H95        27.2668  -50.2201  -60.9355 H         1 UNK         0.0790 
     96 H96        27.7087  -50.0356  -57.4130 H         1 UNK         0.3215 
     97 H97        25.7267  -49.6042  -54.4395 H         1 UNK         0.0863 
     98 H98        27.3276  -51.4001  -53.7782 H         1 UNK         0.0808 
     99 H99        27.6534  -51.7575  -55.4725 H         1 UNK         0.0808 
    100 H100       26.0501  -52.0271  -54.8075 H         1 UNK         0.0808 
    101 H101       28.4662  -49.3025  -55.6171 H         1 UNK         0.3118 
    102 H102       28.6274  -46.0097  -54.9989 H         1 UNK         0.0546 
    103 H103       28.9282  -46.2337  -52.5554 H         1 UNK         0.0828 
    104 H104       30.4974  -46.1269  -53.3352 H         1 UNK         0.0828 
    105 H105       29.8959  -47.6865  -52.7735 H         1 UNK         0.0828 
    106 H106       30.6861  -48.0833  -55.0873 H         1 UNK         0.3005 
    107 H107       30.5780  -48.4394  -58.5965 H         1 UNK         0.1257 
    108 H108       31.9284  -46.3719  -58.4312 H         1 UNK         0.0775 
    109 H109       32.9076  -47.7854  -58.6130 H         1 UNK         0.0775 
    110 H110       34.2681  -44.7307  -56.0052 H         1 UNK         0.0840 
    111 H111       33.5439  -44.7442  -57.5886 H         1 UNK         0.0840 
    112 H112       32.3700  -49.5310  -56.7138 H         1 UNK         0.2987 
    113 H113       30.3730  -52.0315  -55.3253 H         1 UNK         0.0785 
    114 H114       30.4705  -53.0754  -57.5976 H         1 UNK         0.0798 
    115 H115       31.6658  -53.7755  -56.5211 H         1 UNK         0.0798 
    116 H116       32.1587  -52.6095  -57.7509 H         1 UNK         0.0798 
    117 H117       33.1679  -52.0366  -55.5217 H         1 UNK         0.3079 
    118 H118       34.1670  -51.6359  -53.3598 H         1 UNK         0.0794 
    119 H119       34.6398  -48.8448  -54.5834 H         1 UNK         0.0786 
    120 H120       35.0052  -50.3634  -55.3941 H         1 UNK         0.0786 
    121 H121       35.8905  -49.9073  -53.9510 H         1 UNK         0.0786 
    122 H122       32.8976  -49.3275  -52.1911 H         1 UNK         0.3032 
    123 H123       33.2829  -49.3674  -49.6336 H         1 UNK         0.1094 
    124 H124       36.2869  -48.8927  -49.2312 H         1 UNK         0.0794 
    125 H125       35.0221  -48.5458  -48.0518 H         1 UNK         0.0794 
    126 H126       35.3468  -50.2030  -48.5297 H         1 UNK         0.0794 
    127 H127       35.0388  -47.1307  -50.4256 H         1 UNK         0.3016 
@<TRIPOS>BOND
     1    1    2 1    
     2    1   67 1    
     3    1   68 1    
     4    1   69 1    
     5    2    3 2    
     6    2    4 am   BACKBONE|DICT|INTERRES
     7    4    5 1    
     8    4   70 1    
     9    5    6 1    
    10    5   65 1    
    11    5   71 1    
    12    6    7 1    
    13    6   72 1    
    14    6   73 1    
    15    7    8 1    
    16    8    9 1    
    17    8   74 1    
    18    8   75 1    
    19    9   10 ar   
    20    9   14 ar   
    21   10   11 ar   
    22   10   76 1    
    23   11   12 ar   
    24   11   48 1    
    25   12   13 ar   
    26   12   77 1    
    27   13   14 ar   
    28   13   15 1    
    29   14   78 1    
    30   15   16 1    
    31   15   79 1    
    32   15   80 1    
    33   16   17 1    
    34   17   18 1    
    35   17   81 1    
    36   17   82 1    
    37   18   19 1    
    38   18   22 1    
    39   18   83 1    
    40   19   20 am   BACKBONE|DICT|INTERRES
    41   19   21 2    
    42   20   84 1    
    43   20   85 1    
    44   22   23 am   BACKBONE|DICT|INTERRES
    45   22   86 1    
    46   23   24 2    
    47   23   25 1    
    48   25   26 1    
    49   25   27 1    
    50   25   87 1    
    51   26   88 1    
    52   26   89 1    
    53   26   90 1    
    54   27   28 am   BACKBONE|DICT|INTERRES
    55   27   91 1    
    56   28   29 2    
    57   28   30 1    
    58   30   31 1    
    59   30   32 1    
    60   30   92 1    
    61   31   93 1    
    62   31   94 1    
    63   31   95 1    
    64   32   33 am   BACKBONE|DICT|INTERRES
    65   32   96 1    
    66   33   34 2    
    67   33   35 1    
    68   35   36 1    
    69   35   37 1    
    70   35   97 1    
    71   36   98 1    
    72   36   99 1    
    73   36  100 1    
    74   37   38 am   BACKBONE|DICT|INTERRES
    75   37  101 1    
    76   38   39 2    
    77   38   40 1    
    78   40   41 1    
    79   40   42 1    
    80   40  102 1    
    81   41  103 1    
    82   41  104 1    
    83   41  105 1    
    84   42   43 am   BACKBONE|DICT|INTERRES
    85   42  106 1    
    86   43   44 2    
    87   43   45 1    
    88   45   46 1    
    89   45   49 1    
    90   45  107 1    
    91   46   47 1    
    92   46  108 1    
    93   46  109 1    
    94   47   48 1    
    95   48  110 1    
    96   48  111 1    
    97   49   50 am   BACKBONE|DICT|INTERRES
    98   49  112 1    
    99   50   51 2    
   100   50   52 1    
   101   52   53 1    
   102   52   54 1    
   103   52  113 1    
   104   53  114 1    
   105   53  115 1    
   106   53  116 1    
   107   54   55 am   BACKBONE|DICT|INTERRES
   108   54  117 1    
   109   55   56 2    
   110   55   57 1    
   111   57   58 1    
   112   57   59 1    
   113   57  118 1    
   114   58  119 1    
   115   58  120 1    
   116   58  121 1    
   117   59   60 am   BACKBONE|DICT|INTERRES
   118   59  122 1    
   119   60   61 2    
   120   60   62 1    
   121   62   63 1    
   122   62   64 1    
   123   62  123 1    
   124   63  124 1    
   125   63  125 1    
   126   63  126 1    
   127   64   65 am   BACKBONE|DICT|INTERRES
   128   64  127 1    
   129   65   66 2    
@<TRIPOS>SUBSTRUCTURE
     1 UNK         1 GROUP             0       ****    0 ROOT    
