@<TRIPOS>MOLECULE
3R134
127   129    1
SMALL
USER_CHARGES


@<TRIPOS>ATOM
      1 CA         39.1975  -44.2111  -52.6947 C.3       0 UNK        -0.1968 
      2 C          37.9783  -44.9771  -53.1870 C.2       0 UNK         0.4852 
      3 O          38.0806  -46.1718  -53.4702 O.2       0 UNK        -0.5359 
      4 N          36.8306  -44.2970  -53.2991 N.am      1 UNK        -0.4300 
      5 CA         35.5387  -44.8733  -53.6772 C.3       1 UNK         0.0863 
      6 C6         34.5380  -43.7784  -54.1446 C.3       11 UNK        -0.0953 
      7 S7         34.3154  -42.3926  -52.9641 S.3       11 UNK        -0.2369 
      8 C8         32.8284  -41.5467  -53.6127 C.3       11 UNK         0.0226 
      9 C9         31.4909  -42.2742  -53.4400 C.ar      11 UNK        -0.0699 
     10 C10        31.3820  -43.5414  -52.8540 C.ar      11 UNK        -0.0804 
     11 C11        30.1558  -44.2079  -52.8158 C.ar      11 UNK        -0.0871 
     12 C12        29.0077  -43.5661  -53.2796 C.ar      11 UNK        -0.1008 
     13 C13        29.0864  -42.2897  -53.8442 C.ar      11 UNK        -0.0735 
     14 C14        30.3316  -41.6556  -53.9240 C.ar      11 UNK        -0.0945 
     15 C15        27.8376  -41.5890  -54.3746 C.3       11 UNK         0.0169 
     16 S16        26.7018  -42.6961  -55.2805 S.3       11 UNK        -0.2669 
     17 C17        27.7483  -43.2197  -56.6814 C.3       11 UNK        -0.0850 
     18 CA         26.9002  -43.7673  -57.8603 C.3       10 UNK         0.0855 
     19 C          27.7295  -43.9259  -59.1696 C.2       10 UNK         0.5543 
     20 N          27.5196  -44.9606  -59.9750 N.am      10 UNK        -0.7343 
     21 O          28.5713  -43.0852  -59.4760 O.2       10 UNK        -0.5027 
     22 N          26.1862  -44.9971  -57.4786 N.am      10 UNK        -0.4495 
     23 C          24.9133  -45.2763  -57.7774 C.2       10 UNK         0.4903 
     24 O          24.1503  -44.4927  -58.3459 O.2       10 UNK        -0.4860 
     25 CA         24.4337  -46.6929  -57.4018 C.3       9 UNK         0.0227 
     26 CB         22.9975  -46.9906  -57.8805 C.3       9 UNK        -0.1964 
     27 N          25.3530  -47.7427  -57.8612 N.am      9 UNK        -0.4231 
     28 C          25.7868  -47.9597  -59.1137 C.2       9 UNK         0.5014 
     29 O          25.4540  -47.2722  -60.0799 O.2       9 UNK        -0.5270 
     30 CA         26.7951  -49.1022  -59.3433 C.3       8 UNK         0.0284 
     31 CB         28.1494  -48.5313  -59.7980 C.3       8 UNK        -0.1977 
     32 N          27.0124  -49.9463  -58.1669 N.am      8 UNK        -0.4342 
     33 C          26.1702  -50.8883  -57.7227 C.2       8 UNK         0.5039 
     34 O          25.1251  -51.2001  -58.2941 O.2       8 UNK        -0.5547 
     35 CA         26.5388  -51.5631  -56.3896 C.3       7 UNK         0.0281 
     36 CB         27.5600  -52.6910  -56.6091 C.3       7 UNK        -0.1963 
     37 N          27.0565  -50.6102  -55.4018 N.am      7 UNK        -0.4444 
     38 C          26.3409  -49.6135  -54.8590 C.2       7 UNK         0.5104 
     39 O          25.1542  -49.4048  -55.1076 O.2       7 UNK        -0.5100 
     40 CA         27.0887  -48.6573  -53.9198 C.3       6 UNK         0.0396 
     41 CB         27.1830  -49.2387  -52.5009 C.3       6 UNK        -0.1801 
     42 N          28.4282  -48.3543  -54.4194 N.am      6 UNK        -0.4747 
     43 C          28.6853  -47.5294  -55.4453 C.2       6 UNK         0.5012 
     44 O          27.8185  -46.9098  -56.0640 O.2       6 UNK        -0.5003 
     45 CA         30.1616  -47.3941  -55.8697 C.3       5 UNK         0.0782 
     46 C46        30.8758  -46.2816  -55.0694 C.3       11 UNK        -0.0868 
     47 S47        31.2232  -46.7210  -53.3207 S.3       11 UNK        -0.2515 
     48 C48        30.0859  -45.6586  -52.3657 C.3       11 UNK         0.0199 
     49 N          30.9011  -48.6563  -55.8043 N.am      5 UNK        -0.4607 
     50 C          30.6017  -49.7718  -56.4789 C.2       4 UNK         0.5031 
     51 O          29.6757  -49.8561  -57.2822 O.2       4 UNK        -0.5119 
     52 CA         31.4477  -51.0170  -56.1743 C.3       4 UNK         0.0263 
     53 CB         32.5963  -51.1448  -57.1862 C.3       4 UNK        -0.1967 
     54 N          31.9928  -51.0409  -54.8140 N.am      4 UNK        -0.4237 
     55 C          31.2733  -51.0643  -53.6845 C.2       3 UNK         0.4908 
     56 O          30.0425  -51.0093  -53.6564 O.2       3 UNK        -0.5102 
     57 CA         32.0600  -51.1692  -52.3662 C.3       3 UNK         0.0241 
     58 CB         33.0519  -52.3518  -52.3767 C.3       3 UNK        -0.1971 
     59 N          32.7262  -49.9252  -51.9565 N.am      3 UNK        -0.4139 
     60 C          33.6763  -49.2303  -52.6000 C.2       2 UNK         0.5016 
     61 O          34.1274  -49.5180  -53.7126 O.2       2 UNK        -0.5319 
     62 CA         34.2466  -48.0224  -51.8471 C.3       2 UNK         0.0286 
     63 CB         35.3720  -48.4671  -50.8921 C.3       2 UNK        -0.1963 
     64 N          34.7550  -47.0425  -52.8064 N.am      2 UNK        -0.4790 
     65 C          34.9919  -45.7541  -52.5302 C.2       1 UNK         0.5024 
     66 O          34.8147  -45.2596  -51.4143 O.2       1 UNK        -0.4888 
     67 H67        39.9888  -44.2437  -53.4433 H         1 UNK         0.0892 
     68 H68        38.9672  -43.1654  -52.4905 H         1 UNK         0.0892 
     69 H69        39.5769  -44.6600  -51.7771 H         1 UNK         0.0892 
     70 H70        36.7944  -43.3265  -53.0202 H         1 UNK         0.3107 
     71 H71        35.7150  -45.5241  -54.5366 H         1 UNK         0.0773 
     72 H72        34.8942  -43.3484  -55.0819 H         1 UNK         0.0680 
     73 H73        33.5737  -44.2278  -54.3849 H         1 UNK         0.0680 
     74 H74        32.7570  -40.5776  -53.1170 H         1 UNK         0.0650 
     75 H75        32.9856  -41.3397  -54.6722 H         1 UNK         0.0650 
     76 H76        32.2535  -44.0548  -52.4754 H         1 UNK         0.1397 
     77 H77        28.0561  -44.0781  -53.2383 H         1 UNK         0.1363 
     78 H78        30.4027  -40.6747  -54.3745 H         1 UNK         0.1355 
     79 H79        27.3006  -41.1542  -53.5308 H         1 UNK         0.0707 
     80 H80        28.1094  -40.7588  -55.0285 H         1 UNK         0.0707 
     81 H81        28.3400  -42.3582  -56.9966 H         1 UNK         0.1034 
     82 H82        28.4603  -43.9714  -56.3365 H         1 UNK         0.1034 
     83 H83        26.1671  -42.9953  -58.1005 H         1 UNK         0.0482 
     84 H84        28.0600  -45.0363  -60.8217 H         1 UNK         0.3460 
     85 H85        26.7843  -45.6291  -59.7851 H         1 UNK         0.3460 
     86 H86        26.7466  -45.7078  -57.0127 H         1 UNK         0.2989 
     87 H87        24.4366  -46.7396  -56.3117 H         1 UNK         0.0559 
     88 H88        22.2901  -46.2709  -57.4667 H         1 UNK         0.0848 
     89 H89        22.6729  -47.9819  -57.5641 H         1 UNK         0.0848 
     90 H90        22.9145  -46.9413  -58.9668 H         1 UNK         0.0848 
     91 H91        25.7057  -48.3515  -57.1346 H         1 UNK         0.3144 
     92 H92        26.4004  -49.7268  -60.1472 H         1 UNK         0.0727 
     93 H93        28.5812  -47.8725  -59.0431 H         1 UNK         0.0790 
     94 H94        28.0445  -47.9519  -60.7161 H         1 UNK         0.0790 
     95 H95        28.8682  -49.3259  -59.9992 H         1 UNK         0.0790 
     96 H96        27.9000  -49.8197  -57.6812 H         1 UNK         0.3215 
     97 H97        25.6279  -52.0040  -55.9786 H         1 UNK         0.0863 
     98 H98        27.8041  -53.1952  -55.6739 H         1 UNK         0.0808 
     99 H99        28.4882  -52.3203  -57.0438 H         1 UNK         0.0808 
    100 H100       27.1630  -53.4453  -57.2897 H         1 UNK         0.0808 
    101 H101       28.0284  -50.6998  -55.1362 H         1 UNK         0.3118 
    102 H102       26.5218  -47.7251  -53.8654 H         1 UNK         0.0546 
    103 H103       27.7351  -50.1789  -52.4810 H         1 UNK         0.0828 
    104 H104       26.1898  -49.4363  -52.0956 H         1 UNK         0.0828 
    105 H105       27.6780  -48.5454  -51.8209 H         1 UNK         0.0828 
    106 H106       29.2004  -48.8512  -53.9933 H         1 UNK         0.3005 
    107 H107       30.1478  -47.0924  -56.9196 H         1 UNK         0.1257 
    108 H108       31.8365  -46.0658  -55.5392 H         1 UNK         0.0775 
    109 H109       30.3146  -45.3501  -55.1414 H         1 UNK         0.0775 
    110 H110       29.0731  -46.0520  -52.4672 H         1 UNK         0.0840 
    111 H111       30.3401  -45.7217  -51.3069 H         1 UNK         0.0840 
    112 H112       31.6705  -48.6841  -55.1506 H         1 UNK         0.2987 
    113 H113       30.7973  -51.8869  -56.2819 H         1 UNK         0.0785 
    114 H114       32.2171  -51.1481  -58.2093 H         1 UNK         0.0798 
    115 H115       33.1487  -52.0739  -57.0442 H         1 UNK         0.0798 
    116 H116       33.3023  -50.3175  -57.1016 H         1 UNK         0.0798 
    117 H117       32.9993  -50.9622  -54.7168 H         1 UNK         0.3079 
    118 H118       31.3216  -51.3801  -51.5907 H         1 UNK         0.0794 
    119 H119       33.4773  -52.5143  -51.3863 H         1 UNK         0.0786 
    120 H120       33.8801  -52.1955  -53.0684 H         1 UNK         0.0786 
    121 H121       32.5538  -53.2774  -52.6686 H         1 UNK         0.0786 
    122 H122       32.4226  -49.5688  -51.0607 H         1 UNK         0.3032 
    123 H123       33.4401  -47.5618  -51.2713 H         1 UNK         0.1094 
    124 H124       36.2125  -48.8975  -51.4382 H         1 UNK         0.0794 
    125 H125       35.7507  -47.6328  -50.3016 H         1 UNK         0.0794 
    126 H126       35.0179  -49.2220  -50.1888 H         1 UNK         0.0794 
    127 H127       34.9071  -47.4107  -53.7377 H         1 UNK         0.3016 
@<TRIPOS>BOND
     1    1    2 1    
     2    1   67 1    
     3    1   68 1    
     4    1   69 1    
     5    2    3 2    
     6    2    4 am   BACKBONE|DICT|INTERRES
     7    4    5 1    
     8    4   70 1    
     9    5    6 1    
    10    5   65 1    
    11    5   71 1    
    12    6    7 1    
    13    6   72 1    
    14    6   73 1    
    15    7    8 1    
    16    8    9 1    
    17    8   74 1    
    18    8   75 1    
    19    9   10 ar   
    20    9   14 ar   
    21   10   11 ar   
    22   10   76 1    
    23   11   12 ar   
    24   11   48 1    
    25   12   13 ar   
    26   12   77 1    
    27   13   14 ar   
    28   13   15 1    
    29   14   78 1    
    30   15   16 1    
    31   15   79 1    
    32   15   80 1    
    33   16   17 1    
    34   17   18 1    
    35   17   81 1    
    36   17   82 1    
    37   18   19 1    
    38   18   22 1    
    39   18   83 1    
    40   19   20 am   BACKBONE|DICT|INTERRES
    41   19   21 2    
    42   20   84 1    
    43   20   85 1    
    44   22   23 am   BACKBONE|DICT|INTERRES
    45   22   86 1    
    46   23   24 2    
    47   23   25 1    
    48   25   26 1    
    49   25   27 1    
    50   25   87 1    
    51   26   88 1    
    52   26   89 1    
    53   26   90 1    
    54   27   28 am   BACKBONE|DICT|INTERRES
    55   27   91 1    
    56   28   29 2    
    57   28   30 1    
    58   30   31 1    
    59   30   32 1    
    60   30   92 1    
    61   31   93 1    
    62   31   94 1    
    63   31   95 1    
    64   32   33 am   BACKBONE|DICT|INTERRES
    65   32   96 1    
    66   33   34 2    
    67   33   35 1    
    68   35   36 1    
    69   35   37 1    
    70   35   97 1    
    71   36   98 1    
    72   36   99 1    
    73   36  100 1    
    74   37   38 am   BACKBONE|DICT|INTERRES
    75   37  101 1    
    76   38   39 2    
    77   38   40 1    
    78   40   41 1    
    79   40   42 1    
    80   40  102 1    
    81   41  103 1    
    82   41  104 1    
    83   41  105 1    
    84   42   43 am   BACKBONE|DICT|INTERRES
    85   42  106 1    
    86   43   44 2    
    87   43   45 1    
    88   45   46 1    
    89   45   49 1    
    90   45  107 1    
    91   46   47 1    
    92   46  108 1    
    93   46  109 1    
    94   47   48 1    
    95   48  110 1    
    96   48  111 1    
    97   49   50 am   BACKBONE|DICT|INTERRES
    98   49  112 1    
    99   50   51 2    
   100   50   52 1    
   101   52   53 1    
   102   52   54 1    
   103   52  113 1    
   104   53  114 1    
   105   53  115 1    
   106   53  116 1    
   107   54   55 am   BACKBONE|DICT|INTERRES
   108   54  117 1    
   109   55   56 2    
   110   55   57 1    
   111   57   58 1    
   112   57   59 1    
   113   57  118 1    
   114   58  119 1    
   115   58  120 1    
   116   58  121 1    
   117   59   60 am   BACKBONE|DICT|INTERRES
   118   59  122 1    
   119   60   61 2    
   120   60   62 1    
   121   62   63 1    
   122   62   64 1    
   123   62  123 1    
   124   63  124 1    
   125   63  125 1    
   126   63  126 1    
   127   64   65 am   BACKBONE|DICT|INTERRES
   128   64  127 1    
   129   65   66 2    
@<TRIPOS>SUBSTRUCTURE
     1 UNK         1 GROUP             0       ****    0 ROOT    
