@<TRIPOS>MOLECULE
3R134
127   129    1
SMALL
USER_CHARGES


@<TRIPOS>ATOM
      1 CA         38.3184  -45.1314  -51.0338 C.3       0 UNK        -0.1968 
      2 C          37.6496  -45.3143  -52.3884 C.2       0 UNK         0.4852 
      3 O          38.3128  -45.1846  -53.4191 O.2       0 UNK        -0.5359 
      4 N          36.3419  -45.6070  -52.3937 N.am      1 UNK        -0.4300 
      5 CA         35.5537  -45.8916  -53.5962 C.3       1 UNK         0.0863 
      6 C6         34.0382  -45.7191  -53.3188 C.3       11 UNK        -0.0953 
      7 S7         33.0796  -45.4349  -54.8486 S.3       11 UNK        -0.2369 
      8 C8         32.6387  -43.6754  -54.6969 C.3       11 UNK         0.0226 
      9 C9         31.2465  -43.4982  -54.1086 C.ar      11 UNK        -0.0699 
     10 C10        31.0273  -43.6506  -52.7358 C.ar      11 UNK        -0.0804 
     11 C11        29.7421  -43.5098  -52.2022 C.ar      11 UNK        -0.0871 
     12 C12        28.6789  -43.1733  -53.0470 C.ar      11 UNK        -0.1008 
     13 C13        28.8891  -43.0061  -54.4188 C.ar      11 UNK        -0.0735 
     14 C14        30.1719  -43.1802  -54.9448 C.ar      11 UNK        -0.0945 
     15 C15        27.7345  -42.6279  -55.3328 C.3       11 UNK         0.0169 
     16 S16        26.7578  -44.0859  -55.8037 S.3       11 UNK        -0.2669 
     17 C17        25.6037  -43.3489  -57.0138 C.3       11 UNK        -0.0850 
     18 CA         25.8320  -43.8330  -58.4711 C.3       10 UNK         0.0855 
     19 C          27.1338  -43.2546  -59.1058 C.2       10 UNK         0.5543 
     20 N          28.0267  -44.0612  -59.6703 N.am      10 UNK        -0.7343 
     21 O          27.3290  -42.0416  -59.0993 O.2       10 UNK        -0.5027 
     22 N          25.6933  -45.2923  -58.5705 N.am      10 UNK        -0.4495 
     23 C          25.3087  -45.9628  -59.6635 C.2       10 UNK         0.4903 
     24 O          24.9312  -45.4216  -60.7043 O.2       10 UNK        -0.4860 
     25 CA         25.3730  -47.4994  -59.5659 C.3       9 UNK         0.0227 
     26 CB         25.2740  -48.1977  -60.9397 C.3       9 UNK        -0.1964 
     27 N          26.5484  -47.9713  -58.8201 N.am      9 UNK        -0.4231 
     28 C          27.8423  -47.7667  -59.1265 C.2       9 UNK         0.5014 
     29 O          28.2098  -47.1234  -60.1114 O.2       9 UNK        -0.5270 
     30 CA         28.9181  -48.3228  -58.1693 C.3       8 UNK         0.0284 
     31 CB         29.8377  -47.1841  -57.6859 C.3       8 UNK        -0.1977 
     32 N          28.3552  -49.0192  -57.0074 N.am      8 UNK        -0.4342 
     33 C          27.8836  -50.2767  -57.0178 C.2       8 UNK         0.5039 
     34 O          27.9775  -51.0242  -57.9915 O.2       8 UNK        -0.5547 
     35 CA         27.1456  -50.7869  -55.7598 C.3       7 UNK         0.0281 
     36 CB         28.0549  -51.7113  -54.9370 C.3       7 UNK        -0.1963 
     37 N          26.6292  -49.7243  -54.8910 N.am      7 UNK        -0.4444 
     38 C          25.7229  -48.8048  -55.2561 C.2       7 UNK         0.5104 
     39 O          25.1431  -48.8163  -56.3424 O.2       7 UNK        -0.5100 
     40 CA         25.4760  -47.6311  -54.2883 C.3       6 UNK         0.0396 
     41 CB         24.2098  -47.8816  -53.4557 C.3       6 UNK        -0.1801 
     42 N          26.5967  -47.3321  -53.3872 N.am      6 UNK        -0.4747 
     43 C          27.8628  -47.0814  -53.7591 C.2       6 UNK         0.5012 
     44 O          28.2428  -47.0961  -54.9284 O.2       6 UNK        -0.5003 
     45 CA         28.9006  -46.8399  -52.6493 C.3       5 UNK         0.0782 
     46 C46        28.2992  -46.2400  -51.3486 C.3       11 UNK        -0.0868 
     47 S47        29.6010  -45.5237  -50.2897 S.3       11 UNK        -0.2515 
     48 C48        29.4990  -43.7518  -50.7182 C.3       11 UNK         0.0199 
     49 N          29.7149  -48.0376  -52.4074 N.am      5 UNK        -0.4607 
     50 C          29.3037  -49.2806  -52.1260 C.2       4 UNK         0.5031 
     51 O          28.1208  -49.6266  -52.0961 O.2       4 UNK        -0.5119 
     52 CA         30.4144  -50.3170  -51.8536 C.3       4 UNK         0.0263 
     53 CB         29.8622  -51.6146  -51.2341 C.3       4 UNK        -0.1967 
     54 N          31.1800  -50.6590  -53.0567 N.am      4 UNK        -0.4237 
     55 C          32.0489  -49.8546  -53.6805 C.2       3 UNK         0.4908 
     56 O          32.3148  -48.7118  -53.3010 O.2       3 UNK        -0.5102 
     57 CA         32.7272  -50.4188  -54.9346 C.3       3 UNK         0.0241 
     58 CB         31.7272  -50.5971  -56.0910 C.3       3 UNK        -0.1971 
     59 N          33.7860  -49.5004  -55.3405 N.am      3 UNK        -0.4139 
     60 C          34.9433  -49.8431  -55.9151 C.2       2 UNK         0.5016 
     61 O          35.2314  -50.9981  -56.2323 O.2       2 UNK        -0.5319 
     62 CA         35.9578  -48.7171  -56.1963 C.3       2 UNK         0.0286 
     63 CB         36.0062  -48.4067  -57.7009 C.3       2 UNK        -0.1963 
     64 N          35.6982  -47.4711  -55.4665 N.am      2 UNK        -0.4790 
     65 C          35.8867  -47.2948  -54.1517 C.2       1 UNK         0.5024 
     66 O          36.2847  -48.1849  -53.3955 O.2       1 UNK        -0.4888 
     67 H67        39.1197  -45.8591  -50.9099 H         1 UNK         0.0892 
     68 H68        38.7500  -44.1340  -50.9594 H         1 UNK         0.0892 
     69 H69        37.6149  -45.2590  -50.2115 H         1 UNK         0.0892 
     70 H70        35.8618  -45.7389  -51.5150 H         1 UNK         0.3107 
     71 H71        35.8484  -45.1552  -54.3481 H         1 UNK         0.0773 
     72 H72        33.6310  -46.5802  -52.7881 H         1 UNK         0.0680 
     73 H73        33.8809  -44.8727  -52.6504 H         1 UNK         0.0680 
     74 H74        32.6856  -43.2261  -55.6898 H         1 UNK         0.0650 
     75 H75        33.3754  -43.1422  -54.0947 H         1 UNK         0.0650 
     76 H76        31.8493  -43.9080  -52.0830 H         1 UNK         0.1397 
     77 H77        27.6823  -43.0561  -52.6434 H         1 UNK         0.1363 
     78 H78        30.3337  -43.0641  -56.0079 H         1 UNK         0.1355 
     79 H79        27.0881  -41.9041  -54.8336 H         1 UNK         0.0707 
     80 H80        28.1113  -42.1379  -56.2325 H         1 UNK         0.0707 
     81 H81        24.5906  -43.6105  -56.7037 H         1 UNK         0.1034 
     82 H82        25.6445  -42.2593  -56.9595 H         1 UNK         0.1034 
     83 H83        25.0237  -43.3976  -59.0619 H         1 UNK         0.0482 
     84 H84        27.8764  -45.0610  -59.7193 H         1 UNK         0.3460 
     85 H85        28.8564  -43.6620  -60.0793 H         1 UNK         0.3460 
     86 H86        26.0107  -45.8121  -57.7651 H         1 UNK         0.2989 
     87 H87        24.5027  -47.8015  -58.9810 H         1 UNK         0.0559 
     88 H88        24.3361  -47.9493  -61.4385 H         1 UNK         0.0848 
     89 H89        25.3068  -49.2822  -60.8366 H         1 UNK         0.0848 
     90 H90        26.0844  -47.8995  -61.6062 H         1 UNK         0.0848 
     91 H91        26.3316  -48.4713  -57.9634 H         1 UNK         0.3144 
     92 H92        29.5261  -49.0303  -58.7364 H         1 UNK         0.0727 
     93 H93        29.2685  -46.3681  -57.2385 H         1 UNK         0.0790 
     94 H94        30.4029  -46.7609  -58.5173 H         1 UNK         0.0790 
     95 H95        30.5612  -47.5268  -56.9466 H         1 UNK         0.0790 
     96 H96        28.2443  -48.4497  -56.1686 H         1 UNK         0.3215 
     97 H97        26.2895  -51.3704  -56.1060 H         1 UNK         0.0863 
     98 H98        27.5198  -52.1496  -54.0942 H         1 UNK         0.0808 
     99 H99        28.9140  -51.1709  -54.5441 H         1 UNK         0.0808 
    100 H100       28.4333  -52.5338  -55.5453 H         1 UNK         0.0808 
    101 H101       27.0551  -49.6326  -53.9742 H         1 UNK         0.3118 
    102 H102       25.3114  -46.7422  -54.9000 H         1 UNK         0.0546 
    103 H103       24.3272  -48.7383  -52.7909 H         1 UNK         0.0828 
    104 H104       23.3525  -48.0836  -54.0996 H         1 UNK         0.0828 
    105 H105       23.9560  -47.0139  -52.8465 H         1 UNK         0.0828 
    106 H106       26.3942  -47.3694  -52.3987 H         1 UNK         0.3005 
    107 H107       29.5841  -46.1053  -53.0769 H         1 UNK         0.1257 
    108 H108       27.5671  -45.4612  -51.5703 H         1 UNK         0.0775 
    109 H109       27.7701  -47.0032  -50.7754 H         1 UNK         0.0775 
    110 H110       28.5251  -43.3637  -50.4150 H         1 UNK         0.0840 
    111 H111       30.2399  -43.2028  -50.1351 H         1 UNK         0.0840 
    112 H112       30.7165  -47.9108  -52.5222 H         1 UNK         0.2987 
    113 H113       31.0985  -49.8715  -51.1279 H         1 UNK         0.0785 
    114 H114       29.2982  -51.4032  -50.3245 H         1 UNK         0.0798 
    115 H115       30.6662  -52.2985  -50.9620 H         1 UNK         0.0798 
    116 H116       29.1920  -52.1377  -51.9172 H         1 UNK         0.0798 
    117 H117       31.0211  -51.5807  -53.4365 H         1 UNK         0.3079 
    118 H118       33.1637  -51.3848  -54.6741 H         1 UNK         0.0794 
    119 H119       31.1937  -49.6727  -56.3067 H         1 UNK         0.0786 
    120 H120       32.2296  -50.9125  -57.0057 H         1 UNK         0.0786 
    121 H121       30.9833  -51.3582  -55.8589 H         1 UNK         0.0786 
    122 H122       33.6507  -48.5441  -55.0358 H         1 UNK         0.3032 
    123 H123       36.9379  -49.0897  -55.8914 H         1 UNK         0.1094 
    124 H124       35.0536  -48.0199  -58.0640 H         1 UNK         0.0794 
    125 H125       36.7786  -47.6722  -57.9309 H         1 UNK         0.0794 
    126 H126       36.2336  -49.3038  -58.2779 H         1 UNK         0.0794 
    127 H127       35.3378  -46.6980  -56.0089 H         1 UNK         0.3016 
@<TRIPOS>BOND
     1    1    2 1    
     2    1   67 1    
     3    1   68 1    
     4    1   69 1    
     5    2    3 2    
     6    2    4 am   BACKBONE|DICT|INTERRES
     7    4    5 1    
     8    4   70 1    
     9    5    6 1    
    10    5   65 1    
    11    5   71 1    
    12    6    7 1    
    13    6   72 1    
    14    6   73 1    
    15    7    8 1    
    16    8    9 1    
    17    8   74 1    
    18    8   75 1    
    19    9   10 ar   
    20    9   14 ar   
    21   10   11 ar   
    22   10   76 1    
    23   11   12 ar   
    24   11   48 1    
    25   12   13 ar   
    26   12   77 1    
    27   13   14 ar   
    28   13   15 1    
    29   14   78 1    
    30   15   16 1    
    31   15   79 1    
    32   15   80 1    
    33   16   17 1    
    34   17   18 1    
    35   17   81 1    
    36   17   82 1    
    37   18   19 1    
    38   18   22 1    
    39   18   83 1    
    40   19   20 am   BACKBONE|DICT|INTERRES
    41   19   21 2    
    42   20   84 1    
    43   20   85 1    
    44   22   23 am   BACKBONE|DICT|INTERRES
    45   22   86 1    
    46   23   24 2    
    47   23   25 1    
    48   25   26 1    
    49   25   27 1    
    50   25   87 1    
    51   26   88 1    
    52   26   89 1    
    53   26   90 1    
    54   27   28 am   BACKBONE|DICT|INTERRES
    55   27   91 1    
    56   28   29 2    
    57   28   30 1    
    58   30   31 1    
    59   30   32 1    
    60   30   92 1    
    61   31   93 1    
    62   31   94 1    
    63   31   95 1    
    64   32   33 am   BACKBONE|DICT|INTERRES
    65   32   96 1    
    66   33   34 2    
    67   33   35 1    
    68   35   36 1    
    69   35   37 1    
    70   35   97 1    
    71   36   98 1    
    72   36   99 1    
    73   36  100 1    
    74   37   38 am   BACKBONE|DICT|INTERRES
    75   37  101 1    
    76   38   39 2    
    77   38   40 1    
    78   40   41 1    
    79   40   42 1    
    80   40  102 1    
    81   41  103 1    
    82   41  104 1    
    83   41  105 1    
    84   42   43 am   BACKBONE|DICT|INTERRES
    85   42  106 1    
    86   43   44 2    
    87   43   45 1    
    88   45   46 1    
    89   45   49 1    
    90   45  107 1    
    91   46   47 1    
    92   46  108 1    
    93   46  109 1    
    94   47   48 1    
    95   48  110 1    
    96   48  111 1    
    97   49   50 am   BACKBONE|DICT|INTERRES
    98   49  112 1    
    99   50   51 2    
   100   50   52 1    
   101   52   53 1    
   102   52   54 1    
   103   52  113 1    
   104   53  114 1    
   105   53  115 1    
   106   53  116 1    
   107   54   55 am   BACKBONE|DICT|INTERRES
   108   54  117 1    
   109   55   56 2    
   110   55   57 1    
   111   57   58 1    
   112   57   59 1    
   113   57  118 1    
   114   58  119 1    
   115   58  120 1    
   116   58  121 1    
   117   59   60 am   BACKBONE|DICT|INTERRES
   118   59  122 1    
   119   60   61 2    
   120   60   62 1    
   121   62   63 1    
   122   62   64 1    
   123   62  123 1    
   124   63  124 1    
   125   63  125 1    
   126   63  126 1    
   127   64   65 am   BACKBONE|DICT|INTERRES
   128   64  127 1    
   129   65   66 2    
@<TRIPOS>SUBSTRUCTURE
     1 UNK         1 GROUP             0       ****    0 ROOT    
