@<TRIPOS>MOLECULE
3R134
127   129    1
SMALL
USER_CHARGES


@<TRIPOS>ATOM
      1 CA         32.7843  -42.0384  -53.1762 C.3       0 UNK        -0.1968 
      2 C          34.1371  -42.7336  -53.2062 C.2       0 UNK         0.4852 
      3 O          35.0353  -42.3608  -52.4510 O.2       0 UNK        -0.5359 
      4 N          34.2872  -43.7428  -54.0745 N.am      1 UNK        -0.4300 
      5 CA         35.5181  -44.5207  -54.2643 C.3       1 UNK         0.0863 
      6 C6         35.5836  -45.1156  -55.6980 C.3       11 UNK        -0.0953 
      7 S7         34.6755  -46.6780  -55.9598 S.3       11 UNK        -0.2369 
      8 C8         33.1075  -46.1547  -56.7352 C.3       11 UNK         0.0226 
      9 C9         32.0841  -45.5227  -55.7891 C.ar      11 UNK        -0.0699 
     10 C10        31.9911  -45.8903  -54.4422 C.ar      11 UNK        -0.0804 
     11 C11        31.0551  -45.2881  -53.5965 C.ar      11 UNK        -0.0871 
     12 C12        30.1767  -44.3360  -54.1167 C.ar      11 UNK        -0.1008 
     13 C13        30.2097  -43.9963  -55.4751 C.ar      11 UNK        -0.0735 
     14 C14        31.1782  -44.5853  -56.2949 C.ar      11 UNK        -0.0945 
     15 C15        29.2343  -42.9983  -56.1066 C.3       11 UNK         0.0169 
     16 S16        27.7474  -42.5782  -55.1283 S.3       11 UNK        -0.2669 
     17 C17        26.9292  -44.1996  -54.8813 C.3       11 UNK        -0.0850 
     18 CA         25.6269  -44.4283  -55.6943 C.3       10 UNK         0.0855 
     19 C          24.5535  -43.3258  -55.4472 C.2       10 UNK         0.5543 
     20 N          24.1575  -42.5467  -56.4466 N.am      10 UNK        -0.7343 
     21 O          24.0642  -43.1866  -54.3287 O.2       10 UNK        -0.5027 
     22 N          25.9229  -44.7505  -57.0984 N.am      10 UNK        -0.4495 
     23 C          25.0689  -45.3079  -57.9645 C.2       10 UNK         0.4903 
     24 O          23.8966  -45.5768  -57.7015 O.2       10 UNK        -0.4860 
     25 CA         25.6160  -45.6430  -59.3625 C.3       9 UNK         0.0227 
     26 CB         26.0417  -44.3766  -60.1338 C.3       9 UNK        -0.1964 
     27 N          26.6770  -46.6580  -59.3397 N.am      9 UNK        -0.4231 
     28 C          27.9090  -46.5800  -58.8196 C.2       9 UNK         0.5014 
     29 O          28.3649  -45.5617  -58.2980 O.2       9 UNK        -0.5270 
     30 CA         28.7745  -47.8547  -58.9040 C.3       8 UNK         0.0284 
     31 CB         30.1468  -47.6743  -58.2318 C.3       8 UNK        -0.1977 
     32 N          28.1282  -49.0348  -58.3231 N.am      8 UNK        -0.4342 
     33 C          27.1213  -49.7336  -58.8638 C.2       8 UNK         0.5039 
     34 O          26.5737  -49.4288  -59.9248 O.2       8 UNK        -0.5547 
     35 CA         26.6318  -50.9633  -58.0879 C.3       7 UNK         0.0281 
     36 CB         27.5567  -52.1654  -58.3405 C.3       7 UNK        -0.1963 
     37 N          26.5651  -50.6896  -56.6521 N.am      7 UNK        -0.4444 
     38 C          25.4685  -50.2616  -56.0119 C.2       7 UNK         0.5104 
     39 O          24.3787  -50.0907  -56.5592 O.2       7 UNK        -0.5100 
     40 CA         25.5936  -49.9917  -54.5003 C.3       6 UNK         0.0396 
     41 CB         25.1169  -51.2131  -53.6983 C.3       6 UNK        -0.1801 
     42 N          26.9519  -49.6401  -54.0783 N.am      6 UNK        -0.4747 
     43 C          27.5526  -48.4730  -54.3526 C.2       6 UNK         0.5012 
     44 O          27.0075  -47.5552  -54.9628 O.2       6 UNK        -0.5003 
     45 CA         29.0128  -48.3125  -53.8821 C.3       5 UNK         0.0782 
     46 C46        29.0498  -47.6586  -52.4782 C.3       11 UNK        -0.0868 
     47 S47        30.7465  -47.4289  -51.8412 S.3       11 UNK        -0.2515 
     48 C48        30.9957  -45.6477  -52.1174 C.3       11 UNK         0.0199 
     49 N          29.7951  -49.5564  -53.9231 N.am      5 UNK        -0.4607 
     50 C          30.0025  -50.3268  -54.9991 C.2       4 UNK         0.5031 
     51 O          29.3986  -50.1814  -56.0634 O.2       4 UNK        -0.5119 
     52 CA         31.0551  -51.4485  -54.8582 C.3       4 UNK         0.0263 
     53 CB         31.5791  -51.9254  -56.2296 C.3       4 UNK        -0.1967 
     54 N          32.1861  -51.1165  -53.9730 N.am      4 UNK        -0.4237 
     55 C          33.0023  -50.0558  -54.0766 C.2       3 UNK         0.4908 
     56 O          32.8732  -49.1659  -54.9155 O.2       3 UNK        -0.5102 
     57 CA         34.1730  -49.9819  -53.0909 C.3       3 UNK         0.0241 
     58 CB         35.4687  -50.5028  -53.7372 C.3       3 UNK        -0.1971 
     59 N          34.3503  -48.5931  -52.6708 N.am      3 UNK        -0.4139 
     60 C          34.8010  -48.2083  -51.4704 C.2       2 UNK         0.5016 
     61 O          35.2115  -49.0011  -50.6203 O.2       2 UNK        -0.5319 
     62 CA         34.7456  -46.7036  -51.1307 C.3       2 UNK         0.0286 
     63 CB         35.8074  -46.2845  -50.0902 C.3       2 UNK        -0.1963 
     64 N          34.7602  -45.8033  -52.2929 N.am      2 UNK        -0.4790 
     65 C          35.7703  -45.5658  -53.1459 C.2       1 UNK         0.5024 
     66 O          36.8647  -46.1273  -53.0850 O.2       1 UNK        -0.4888 
     67 H67        32.1983  -42.3887  -52.3270 H         1 UNK         0.0892 
     68 H68        32.9149  -40.9609  -53.0802 H         1 UNK         0.0892 
     69 H69        32.2157  -42.2248  -54.0869 H         1 UNK         0.0892 
     70 H70        33.5072  -44.0180  -54.6577 H         1 UNK         0.3107 
     71 H71        36.3475  -43.8136  -54.1896 H         1 UNK         0.0773 
     72 H72        36.6267  -45.3230  -55.9424 H         1 UNK         0.0680 
     73 H73        35.2609  -44.3784  -56.4350 H         1 UNK         0.0680 
     74 H74        32.6546  -47.0438  -57.1721 H         1 UNK         0.0650 
     75 H75        33.3322  -45.4818  -57.5640 H         1 UNK         0.0650 
     76 H76        32.6479  -46.6491  -54.0468 H         1 UNK         0.1397 
     77 H77        29.4593  -43.8704  -53.4567 H         1 UNK         0.1363 
     78 H78        31.2133  -44.3228  -57.3437 H         1 UNK         0.1355 
     79 H79        29.7775  -42.0738  -56.3053 H         1 UNK         0.0707 
     80 H80        28.9059  -43.3702  -57.0766 H         1 UNK         0.0707 
     81 H81        26.7091  -44.2941  -53.8166 H         1 UNK         0.1034 
     82 H82        27.6346  -45.0028  -55.0967 H         1 UNK         0.1034 
     83 H83        25.1808  -45.3383  -55.2879 H         1 UNK         0.0482 
     84 H84        24.5578  -42.6595  -57.3636 H         1 UNK         0.3460 
     85 H85        23.4594  -41.8396  -56.2796 H         1 UNK         0.3460 
     86 H86        26.8883  -44.6480  -57.3965 H         1 UNK         0.2989 
     87 H87        24.7950  -46.0963  -59.9204 H         1 UNK         0.0559 
     88 H88        26.8683  -43.8533  -59.6526 H         1 UNK         0.0848 
     89 H89        25.2131  -43.6712  -60.2076 H         1 UNK         0.0848 
     90 H90        26.3499  -44.6196  -61.1506 H         1 UNK         0.0848 
     91 H91        26.4170  -47.5721  -59.7076 H         1 UNK         0.3144 
     92 H92        28.9484  -48.0498  -59.9641 H         1 UNK         0.0727 
     93 H93        30.0463  -47.4627  -57.1660 H         1 UNK         0.0790 
     94 H94        30.6944  -46.8446  -58.6804 H         1 UNK         0.0790 
     95 H95        30.7645  -48.5664  -58.3370 H         1 UNK         0.0790 
     96 H96        28.5314  -49.3756  -57.4518 H         1 UNK         0.3215 
     97 H97        25.6385  -51.2219  -58.4619 H         1 UNK         0.0863 
     98 H98        27.1967  -53.0565  -57.8261 H         1 UNK         0.0808 
     99 H99        28.5760  -51.9735  -58.0044 H         1 UNK         0.0808 
    100 H100       27.6041  -52.4024  -59.4042 H         1 UNK         0.0808 
    101 H101       27.4397  -50.7339  -56.1413 H         1 UNK         0.3118 
    102 H102       24.9360  -49.1529  -54.2619 H         1 UNK         0.0546 
    103 H103       25.7425  -52.0876  -53.8819 H         1 UNK         0.0828 
    104 H104       24.0948  -51.4822  -53.9689 H         1 UNK         0.0828 
    105 H105       25.1233  -51.0127  -52.6268 H         1 UNK         0.0828 
    106 H106       27.4745  -50.3406  -53.5718 H         1 UNK         0.3005 
    107 H107       29.4882  -47.6261  -54.5871 H         1 UNK         0.1257 
    108 H108       28.5101  -48.2753  -51.7569 H         1 UNK         0.0775 
    109 H109       28.5371  -46.6946  -52.4924 H         1 UNK         0.0775 
    110 H110       30.2006  -45.0984  -51.6106 H         1 UNK         0.0840 
    111 H111       31.9227  -45.3369  -51.6378 H         1 UNK         0.0840 
    112 H112       30.3432  -49.7433  -53.0963 H         1 UNK         0.2987 
    113 H113       30.5365  -52.2880  -54.3932 H         1 UNK         0.0785 
    114 H114       30.7691  -52.3119  -56.8488 H         1 UNK         0.0798 
    115 H115       32.3097  -52.7266  -56.1199 H         1 UNK         0.0798 
    116 H116       32.0523  -51.1128  -56.7825 H         1 UNK         0.0798 
    117 H117       32.3701  -51.7870  -53.2389 H         1 UNK         0.3079 
    118 H118       33.9320  -50.5967  -52.2208 H         1 UNK         0.0794 
    119 H119       35.3526  -51.5339  -54.0735 H         1 UNK         0.0786 
    120 H120       36.2998  -50.4821  -53.0320 H         1 UNK         0.0786 
    121 H121       35.7510  -49.9040  -54.6045 H         1 UNK         0.0786 
    122 H122       34.0301  -47.9042  -53.3379 H         1 UNK         0.3032 
    123 H123       33.7727  -46.5626  -50.6578 H         1 UNK         0.1094 
    124 H124       35.7355  -45.2226  -49.8545 H         1 UNK         0.0794 
    125 H125       35.6770  -46.8303  -49.1549 H         1 UNK         0.0794 
    126 H126       36.8204  -46.4836  -50.4406 H         1 UNK         0.0794 
    127 H127       33.9180  -45.2673  -52.4404 H         1 UNK         0.3016 
@<TRIPOS>BOND
     1    1    2 1    
     2    1   67 1    
     3    1   68 1    
     4    1   69 1    
     5    2    3 2    
     6    2    4 am   BACKBONE|DICT|INTERRES
     7    4    5 1    
     8    4   70 1    
     9    5    6 1    
    10    5   65 1    
    11    5   71 1    
    12    6    7 1    
    13    6   72 1    
    14    6   73 1    
    15    7    8 1    
    16    8    9 1    
    17    8   74 1    
    18    8   75 1    
    19    9   10 ar   
    20    9   14 ar   
    21   10   11 ar   
    22   10   76 1    
    23   11   12 ar   
    24   11   48 1    
    25   12   13 ar   
    26   12   77 1    
    27   13   14 ar   
    28   13   15 1    
    29   14   78 1    
    30   15   16 1    
    31   15   79 1    
    32   15   80 1    
    33   16   17 1    
    34   17   18 1    
    35   17   81 1    
    36   17   82 1    
    37   18   19 1    
    38   18   22 1    
    39   18   83 1    
    40   19   20 am   BACKBONE|DICT|INTERRES
    41   19   21 2    
    42   20   84 1    
    43   20   85 1    
    44   22   23 am   BACKBONE|DICT|INTERRES
    45   22   86 1    
    46   23   24 2    
    47   23   25 1    
    48   25   26 1    
    49   25   27 1    
    50   25   87 1    
    51   26   88 1    
    52   26   89 1    
    53   26   90 1    
    54   27   28 am   BACKBONE|DICT|INTERRES
    55   27   91 1    
    56   28   29 2    
    57   28   30 1    
    58   30   31 1    
    59   30   32 1    
    60   30   92 1    
    61   31   93 1    
    62   31   94 1    
    63   31   95 1    
    64   32   33 am   BACKBONE|DICT|INTERRES
    65   32   96 1    
    66   33   34 2    
    67   33   35 1    
    68   35   36 1    
    69   35   37 1    
    70   35   97 1    
    71   36   98 1    
    72   36   99 1    
    73   36  100 1    
    74   37   38 am   BACKBONE|DICT|INTERRES
    75   37  101 1    
    76   38   39 2    
    77   38   40 1    
    78   40   41 1    
    79   40   42 1    
    80   40  102 1    
    81   41  103 1    
    82   41  104 1    
    83   41  105 1    
    84   42   43 am   BACKBONE|DICT|INTERRES
    85   42  106 1    
    86   43   44 2    
    87   43   45 1    
    88   45   46 1    
    89   45   49 1    
    90   45  107 1    
    91   46   47 1    
    92   46  108 1    
    93   46  109 1    
    94   47   48 1    
    95   48  110 1    
    96   48  111 1    
    97   49   50 am   BACKBONE|DICT|INTERRES
    98   49  112 1    
    99   50   51 2    
   100   50   52 1    
   101   52   53 1    
   102   52   54 1    
   103   52  113 1    
   104   53  114 1    
   105   53  115 1    
   106   53  116 1    
   107   54   55 am   BACKBONE|DICT|INTERRES
   108   54  117 1    
   109   55   56 2    
   110   55   57 1    
   111   57   58 1    
   112   57   59 1    
   113   57  118 1    
   114   58  119 1    
   115   58  120 1    
   116   58  121 1    
   117   59   60 am   BACKBONE|DICT|INTERRES
   118   59  122 1    
   119   60   61 2    
   120   60   62 1    
   121   62   63 1    
   122   62   64 1    
   123   62  123 1    
   124   63  124 1    
   125   63  125 1    
   126   63  126 1    
   127   64   65 am   BACKBONE|DICT|INTERRES
   128   64  127 1    
   129   65   66 2    
@<TRIPOS>SUBSTRUCTURE
     1 UNK         1 GROUP             0       ****    0 ROOT    
