@<TRIPOS>MOLECULE
3R134
127   129    1
SMALL
USER_CHARGES


@<TRIPOS>ATOM
      1 CA         33.2685  -43.5626  -49.3719 C.3       0 UNK        -0.1968 
      2 C          34.5001  -44.2878  -49.8949 C.2       0 UNK         0.4852 
      3 O          35.4647  -44.4730  -49.1507 O.2       0 UNK        -0.5359 
      4 N          34.4752  -44.6918  -51.1705 N.am      1 UNK        -0.4300 
      5 CA         35.5177  -45.4861  -51.8251 C.3       1 UNK         0.0863 
      6 C6         35.4456  -45.3645  -53.3713 C.3       11 UNK        -0.0953 
      7 S7         33.8108  -45.7780  -54.0778 S.3       11 UNK        -0.2369 
      8 C8         33.2552  -44.1380  -54.6354 C.3       11 UNK         0.0226 
      9 C9         31.7645  -44.1474  -54.9232 C.ar      11 UNK        -0.0699 
     10 C10        30.8578  -43.9887  -53.8722 C.ar      11 UNK        -0.0804 
     11 C11        29.4822  -44.0425  -54.1079 C.ar      11 UNK        -0.0871 
     12 C12        29.0162  -44.2172  -55.4137 C.ar      11 UNK        -0.1008 
     13 C13        29.9132  -44.3769  -56.4749 C.ar      11 UNK        -0.0735 
     14 C14        31.2887  -44.3397  -56.2244 C.ar      11 UNK        -0.0945 
     15 C15        29.3867  -44.6352  -57.8787 C.3       11 UNK         0.0169 
     16 S16        28.7328  -43.1166  -58.6361 S.3       11 UNK        -0.2669 
     17 C17        27.6588  -43.7995  -59.9486 C.3       11 UNK        -0.0850 
     18 CA         26.1762  -43.9056  -59.4922 C.3       10 UNK         0.0855 
     19 C          25.1825  -44.0897  -60.6768 C.2       10 UNK         0.5543 
     20 N          24.1320  -44.8931  -60.5468 N.am      10 UNK        -0.7343 
     21 O          25.3445  -43.4696  -61.7252 O.2       10 UNK        -0.5027 
     22 N          26.0166  -44.9479  -58.4698 N.am      10 UNK        -0.4495 
     23 C          25.6337  -44.7542  -57.2026 C.2       10 UNK         0.4903 
     24 O          25.3861  -43.6474  -56.7217 O.2       10 UNK        -0.4860 
     25 CA         25.5309  -46.0106  -56.3104 C.3       9 UNK         0.0227 
     26 CB         24.5695  -45.8225  -55.1191 C.3       9 UNK        -0.1964 
     27 N          25.2143  -47.2444  -57.0398 N.am      9 UNK        -0.4231 
     28 C          24.1659  -47.4604  -57.8495 C.2       9 UNK         0.5014 
     29 O          23.2781  -46.6307  -58.0587 O.2       9 UNK        -0.5270 
     30 CA         24.1403  -48.8129  -58.5901 C.3       8 UNK         0.0284 
     31 CB         23.1836  -48.8026  -59.8019 C.3       8 UNK        -0.1977 
     32 N          25.4686  -49.2910  -59.0042 N.am      8 UNK        -0.4342 
     33 C          26.3763  -48.6393  -59.7494 C.2       8 UNK         0.5039 
     34 O          26.2567  -47.4710  -60.1236 O.2       8 UNK        -0.5547 
     35 CA         27.6454  -49.4416  -60.0914 C.3       7 UNK         0.0281 
     36 CB         28.6280  -48.6670  -60.9982 C.3       7 UNK        -0.1963 
     37 N          28.3096  -49.9425  -58.8797 N.am      7 UNK        -0.4444 
     38 C          28.8573  -49.2033  -57.9044 C.2       7 UNK         0.5104 
     39 O          28.9420  -47.9743  -57.9342 O.2       7 UNK        -0.5100 
     40 CA         29.4211  -49.9859  -56.7016 C.3       6 UNK         0.0396 
     41 CB         30.7427  -50.6728  -57.0823 C.3       6 UNK        -0.1801 
     42 N          29.6549  -49.1283  -55.5363 N.am      6 UNK        -0.4747 
     43 C          28.7038  -48.4688  -54.8586 C.2       6 UNK         0.5012 
     44 O          27.4958  -48.6234  -55.0555 O.2       6 UNK        -0.5003 
     45 CA         29.2066  -47.4568  -53.8065 C.3       5 UNK         0.0782 
     46 C46        28.0532  -46.7757  -53.0128 C.3       11 UNK        -0.0868 
     47 S47        28.6296  -45.4578  -51.8868 S.3       11 UNK        -0.2515 
     48 C48        28.5073  -43.9734  -52.9419 C.3       11 UNK         0.0199 
     49 N          30.2726  -48.0119  -52.9618 N.am      5 UNK        -0.4607 
     50 C          30.1573  -49.0281  -52.0970 C.2       4 UNK         0.5031 
     51 O          29.1160  -49.6587  -51.9057 O.2       4 UNK        -0.5119 
     52 CA         31.4355  -49.3847  -51.3129 C.3       4 UNK         0.0263 
     53 CB         31.2854  -50.6613  -50.4576 C.3       4 UNK        -0.1967 
     54 N          32.6321  -49.4685  -52.1611 N.am      4 UNK        -0.4237 
     55 C          32.8389  -50.3045  -53.1943 C.2       3 UNK         0.4908 
     56 O          31.9974  -51.0996  -53.6117 O.2       3 UNK        -0.5102 
     57 CA         34.2132  -50.2607  -53.8943 C.3       3 UNK         0.0241 
     58 CB         34.0982  -49.5909  -55.2733 C.3       3 UNK        -0.1971 
     59 N          35.2487  -49.5764  -53.1179 N.am      3 UNK        -0.4139 
     60 C          35.8130  -50.0491  -51.9971 C.2       2 UNK         0.5016 
     61 O          35.6000  -51.1755  -51.5473 O.2       2 UNK        -0.5319 
     62 CA         36.7533  -49.0981  -51.2292 C.3       2 UNK         0.0286 
     63 CB         38.2210  -49.4960  -51.4565 C.3       2 UNK        -0.1963 
     64 N          36.5874  -47.6738  -51.5552 N.am      2 UNK        -0.4790 
     65 C          35.4676  -46.9593  -51.3686 C.2       1 UNK         0.5024 
     66 O          34.4215  -47.4402  -50.9228 O.2       1 UNK        -0.4888 
     67 H67        32.4962  -43.4660  -50.1350 H         1 UNK         0.0892 
     68 H68        32.8440  -44.1064  -48.5284 H         1 UNK         0.0892 
     69 H69        33.5372  -42.5625  -49.0330 H         1 UNK         0.0892 
     70 H70        33.6400  -44.5557  -51.7199 H         1 UNK         0.3107 
     71 H71        36.4841  -45.0869  -51.5087 H         1 UNK         0.0773 
     72 H72        35.7143  -44.3480  -53.6627 H         1 UNK         0.0680 
     73 H73        36.1941  -46.0001  -53.8478 H         1 UNK         0.0680 
     74 H74        33.8185  -43.8473  -55.5235 H         1 UNK         0.0650 
     75 H75        33.4735  -43.3913  -53.8703 H         1 UNK         0.0650 
     76 H76        31.2211  -43.8625  -52.8615 H         1 UNK         0.1397 
     77 H77        27.9539  -44.2525  -55.6030 H         1 UNK         0.1363 
     78 H78        31.9883  -44.4752  -57.0379 H         1 UNK         0.1355 
     79 H79        28.6021  -45.3887  -57.8237 H         1 UNK         0.0707 
     80 H80        30.1652  -45.0534  -58.5185 H         1 UNK         0.0707 
     81 H81        27.7524  -43.1330  -60.8077 H         1 UNK         0.1034 
     82 H82        28.0331  -44.7704  -60.2798 H         1 UNK         0.1034 
     83 H83        25.8986  -42.9384  -59.0699 H         1 UNK         0.0482 
     84 H84        23.4933  -44.9966  -61.3185 H         1 UNK         0.3460 
     85 H85        23.9707  -45.3989  -59.6848 H         1 UNK         0.3460 
     86 H86        26.1480  -45.8960  -58.8113 H         1 UNK         0.2989 
     87 H87        26.5317  -46.1622  -55.9073 H         1 UNK         0.0559 
     88 H88        24.8765  -44.9836  -54.4932 H         1 UNK         0.0848 
     89 H89        24.5511  -46.7071  -54.4825 H         1 UNK         0.0848 
     90 H90        23.5500  -45.6257  -55.4523 H         1 UNK         0.0848 
     91 H91        25.8992  -47.9836  -56.9468 H         1 UNK         0.3144 
     92 H92        23.7583  -49.5408  -57.8728 H         1 UNK         0.0727 
     93 H93        23.4857  -48.0643  -60.5459 H         1 UNK         0.0790 
     94 H94        22.1642  -48.5613  -59.4978 H         1 UNK         0.0790 
     95 H95        23.1507  -49.7763  -60.2906 H         1 UNK         0.0790 
     96 H96        25.6941  -50.2341  -58.7183 H         1 UNK         0.3215 
     97 H97        27.3136  -50.3178  -60.6511 H         1 UNK         0.0863 
     98 H98        29.5075  -49.2658  -61.2339 H         1 UNK         0.0808 
     99 H99        28.9672  -47.7380  -60.5390 H         1 UNK         0.0808 
    100 H100       28.1529  -48.4011  -61.9433 H         1 UNK         0.0808 
    101 H101       28.3050  -50.9470  -58.7645 H         1 UNK         0.3118 
    102 H102       28.6947  -50.7494  -56.4160 H         1 UNK         0.0546 
    103 H103       31.4951  -49.9482  -57.3959 H         1 UNK         0.0828 
    104 H104       30.6035  -51.3718  -57.9077 H         1 UNK         0.0828 
    105 H105       31.1482  -51.2441  -56.2471 H         1 UNK         0.0828 
    106 H106       30.6190  -48.9518  -55.2975 H         1 UNK         0.3005 
    107 H107       29.6940  -46.6862  -54.4009 H         1 UNK         0.1257 
    108 H108       27.5120  -47.5150  -52.4203 H         1 UNK         0.0775 
    109 H109       27.3174  -46.3445  -53.6921 H         1 UNK         0.0775 
    110 H110       27.4802  -43.8582  -53.2923 H         1 UNK         0.0840 
    111 H111       28.7274  -43.0903  -52.3405 H         1 UNK         0.0840 
    112 H112       31.1713  -47.5576  -53.0400 H         1 UNK         0.2987 
    113 H113       31.6095  -48.5534  -50.6277 H         1 UNK         0.0785 
    114 H114       30.4727  -50.5562  -49.7379 H         1 UNK         0.0798 
    115 H115       32.1940  -50.8677  -49.8918 H         1 UNK         0.0798 
    116 H116       31.0658  -51.5362  -51.0703 H         1 UNK         0.0798 
    117 H117       33.3825  -48.8374  -51.8953 H         1 UNK         0.3079 
    118 H118       34.5336  -51.2941  -54.0433 H         1 UNK         0.0794 
    119 H119       35.0618  -49.5568  -55.7819 H         1 UNK         0.0786 
    120 H120       33.7190  -48.5714  -55.2009 H         1 UNK         0.0786 
    121 H121       33.4182  -50.1481  -55.9170 H         1 UNK         0.0786 
    122 H122       35.4965  -48.6437  -53.4137 H         1 UNK         0.3032 
    123 H123       36.5246  -49.2207  -50.1680 H         1 UNK         0.1094 
    124 H124       38.5168  -49.3707  -52.4989 H         1 UNK         0.0794 
    125 H125       38.8949  -48.9004  -50.8404 H         1 UNK         0.0794 
    126 H126       38.3878  -50.5420  -51.1944 H         1 UNK         0.0794 
    127 H127       37.3988  -47.2082  -51.9379 H         1 UNK         0.3016 
@<TRIPOS>BOND
     1    1    2 1    
     2    1   67 1    
     3    1   68 1    
     4    1   69 1    
     5    2    3 2    
     6    2    4 am   BACKBONE|DICT|INTERRES
     7    4    5 1    
     8    4   70 1    
     9    5    6 1    
    10    5   65 1    
    11    5   71 1    
    12    6    7 1    
    13    6   72 1    
    14    6   73 1    
    15    7    8 1    
    16    8    9 1    
    17    8   74 1    
    18    8   75 1    
    19    9   10 ar   
    20    9   14 ar   
    21   10   11 ar   
    22   10   76 1    
    23   11   12 ar   
    24   11   48 1    
    25   12   13 ar   
    26   12   77 1    
    27   13   14 ar   
    28   13   15 1    
    29   14   78 1    
    30   15   16 1    
    31   15   79 1    
    32   15   80 1    
    33   16   17 1    
    34   17   18 1    
    35   17   81 1    
    36   17   82 1    
    37   18   19 1    
    38   18   22 1    
    39   18   83 1    
    40   19   20 am   BACKBONE|DICT|INTERRES
    41   19   21 2    
    42   20   84 1    
    43   20   85 1    
    44   22   23 am   BACKBONE|DICT|INTERRES
    45   22   86 1    
    46   23   24 2    
    47   23   25 1    
    48   25   26 1    
    49   25   27 1    
    50   25   87 1    
    51   26   88 1    
    52   26   89 1    
    53   26   90 1    
    54   27   28 am   BACKBONE|DICT|INTERRES
    55   27   91 1    
    56   28   29 2    
    57   28   30 1    
    58   30   31 1    
    59   30   32 1    
    60   30   92 1    
    61   31   93 1    
    62   31   94 1    
    63   31   95 1    
    64   32   33 am   BACKBONE|DICT|INTERRES
    65   32   96 1    
    66   33   34 2    
    67   33   35 1    
    68   35   36 1    
    69   35   37 1    
    70   35   97 1    
    71   36   98 1    
    72   36   99 1    
    73   36  100 1    
    74   37   38 am   BACKBONE|DICT|INTERRES
    75   37  101 1    
    76   38   39 2    
    77   38   40 1    
    78   40   41 1    
    79   40   42 1    
    80   40  102 1    
    81   41  103 1    
    82   41  104 1    
    83   41  105 1    
    84   42   43 am   BACKBONE|DICT|INTERRES
    85   42  106 1    
    86   43   44 2    
    87   43   45 1    
    88   45   46 1    
    89   45   49 1    
    90   45  107 1    
    91   46   47 1    
    92   46  108 1    
    93   46  109 1    
    94   47   48 1    
    95   48  110 1    
    96   48  111 1    
    97   49   50 am   BACKBONE|DICT|INTERRES
    98   49  112 1    
    99   50   51 2    
   100   50   52 1    
   101   52   53 1    
   102   52   54 1    
   103   52  113 1    
   104   53  114 1    
   105   53  115 1    
   106   53  116 1    
   107   54   55 am   BACKBONE|DICT|INTERRES
   108   54  117 1    
   109   55   56 2    
   110   55   57 1    
   111   57   58 1    
   112   57   59 1    
   113   57  118 1    
   114   58  119 1    
   115   58  120 1    
   116   58  121 1    
   117   59   60 am   BACKBONE|DICT|INTERRES
   118   59  122 1    
   119   60   61 2    
   120   60   62 1    
   121   62   63 1    
   122   62   64 1    
   123   62  123 1    
   124   63  124 1    
   125   63  125 1    
   126   63  126 1    
   127   64   65 am   BACKBONE|DICT|INTERRES
   128   64  127 1    
   129   65   66 2    
@<TRIPOS>SUBSTRUCTURE
     1 UNK         1 GROUP             0       ****    0 ROOT    
