@<TRIPOS>MOLECULE
3R134
127   129    1
SMALL
USER_CHARGES


@<TRIPOS>ATOM
      1 CA         37.4820  -47.0451  -54.2109 C.3       0 UNK        -0.1968 
      2 C          36.1525  -47.3151  -53.5238 C.2       0 UNK         0.4852 
      3 O          35.8050  -48.4767  -53.3104 O.2       0 UNK        -0.5359 
      4 N          35.4230  -46.2518  -53.1550 N.am      1 UNK        -0.4300 
      5 CA         34.0807  -46.2708  -52.5494 C.3       1 UNK         0.0863 
      6 C6         33.5780  -44.8415  -52.2306 C.3       11 UNK        -0.0953 
      7 S7         33.6036  -43.7343  -53.6802 S.3       11 UNK        -0.2369 
      8 C8         32.0190  -42.8589  -53.5053 C.3       11 UNK         0.0226 
      9 C9         30.8661  -43.6408  -54.1161 C.ar      11 UNK        -0.0699 
     10 C10        30.0412  -44.4410  -53.3173 C.ar      11 UNK        -0.0804 
     11 C11        28.9555  -45.1202  -53.8796 C.ar      11 UNK        -0.0871 
     12 C12        28.6955  -44.9872  -55.2454 C.ar      11 UNK        -0.1008 
     13 C13        29.5225  -44.2071  -56.0546 C.ar      11 UNK        -0.0735 
     14 C14        30.6070  -43.5350  -55.4864 C.ar      11 UNK        -0.0945 
     15 C15        29.2338  -44.0993  -57.5401 C.3       11 UNK         0.0169 
     16 S16        28.0321  -42.7774  -57.8794 S.3       11 UNK        -0.2669 
     17 C17        27.0697  -43.5001  -59.2538 C.3       11 UNK        -0.0850 
     18 CA         25.5379  -43.3644  -59.0480 C.3       10 UNK         0.0855 
     19 C          24.7507  -43.8806  -60.2892 C.2       10 UNK         0.5543 
     20 N          23.7975  -44.7958  -60.1556 N.am      10 UNK        -0.7343 
     21 O          25.0073  -43.4324  -61.4038 O.2       10 UNK        -0.5027 
     22 N          25.0914  -43.9479  -57.7716 N.am      10 UNK        -0.4495 
     23 C          24.0435  -43.4991  -57.0666 C.2       10 UNK         0.4903 
     24 O          23.3942  -42.4978  -57.3749 O.2       10 UNK        -0.4860 
     25 CA         23.6464  -44.3070  -55.8115 C.3       9 UNK         0.0227 
     26 CB         22.1879  -44.0494  -55.3759 C.3       9 UNK        -0.1964 
     27 N          23.8949  -45.7489  -55.9369 N.am      9 UNK        -0.4231 
     28 C          23.4249  -46.5713  -56.8859 C.2       9 UNK         0.5014 
     29 O          22.6783  -46.2260  -57.8043 O.2       9 UNK        -0.5270 
     30 CA         23.9353  -48.0198  -56.8328 C.3       8 UNK         0.0284 
     31 CB         22.7714  -49.0233  -56.9031 C.3       8 UNK        -0.1977 
     32 N          24.8842  -48.2988  -57.9139 N.am      8 UNK        -0.4342 
     33 C          26.0391  -47.6525  -58.1158 C.2       8 UNK         0.5039 
     34 O          26.4402  -46.7091  -57.4248 O.2       8 UNK        -0.5547 
     35 CA         26.9044  -48.1430  -59.2788 C.3       7 UNK         0.0281 
     36 CB         26.5156  -47.4598  -60.6027 C.3       7 UNK        -0.1963 
     37 N          28.2846  -47.8485  -58.9192 N.am      7 UNK        -0.4444 
     38 C          29.3836  -48.3985  -59.4418 C.2       7 UNK         0.5104 
     39 O          29.3812  -49.1603  -60.4093 O.2       7 UNK        -0.5100 
     40 CA         30.7139  -48.0623  -58.7420 C.3       6 UNK         0.0396 
     41 CB         31.3593  -46.8194  -59.3748 C.3       6 UNK        -0.1801 
     42 N          30.5845  -47.8724  -57.2893 N.am      6 UNK        -0.4747 
     43 C          30.2742  -48.8563  -56.4305 C.2       6 UNK         0.5012 
     44 O          30.0165  -50.0109  -56.7809 O.2       6 UNK        -0.5003 
     45 CA         30.2396  -48.5049  -54.9293 C.3       5 UNK         0.0782 
     46 C46        28.7817  -48.3340  -54.4363 C.3       11 UNK        -0.0868 
     47 S47        28.7308  -47.6491  -52.7443 S.3       11 UNK        -0.2515 
     48 C48        28.0470  -45.9822  -53.0147 C.3       11 UNK         0.0199 
     49 N          30.9287  -49.5573  -54.1777 N.am      5 UNK        -0.4607 
     50 C          32.2520  -49.7412  -54.1615 C.2       4 UNK         0.5031 
     51 O          33.0606  -48.9661  -54.6727 O.2       4 UNK        -0.5119 
     52 CA         32.7389  -51.0480  -53.5291 C.3       4 UNK         0.0263 
     53 CB         32.8748  -52.1395  -54.6099 C.3       4 UNK        -0.1967 
     54 N          34.0150  -50.8386  -52.8474 N.am      4 UNK        -0.4237 
     55 C          34.5321  -51.6784  -51.9390 C.2       3 UNK         0.4908 
     56 O          33.9976  -52.7348  -51.5985 O.2       3 UNK        -0.5102 
     57 CA         35.8525  -51.2684  -51.2741 C.3       3 UNK         0.0241 
     58 CB         37.0407  -51.4404  -52.2361 C.3       3 UNK        -0.1971 
     59 N          35.7795  -49.8877  -50.7997 N.am      3 UNK        -0.4139 
     60 C          35.3089  -49.5282  -49.5964 C.2       2 UNK         0.5016 
     61 O          34.9710  -50.3321  -48.7261 O.2       2 UNK        -0.5319 
     62 CA         35.1953  -48.0221  -49.2959 C.3       2 UNK         0.0286 
     63 CB         36.4097  -47.5434  -48.4838 C.3       2 UNK        -0.1963 
     64 N          35.0671  -47.1935  -50.4964 N.am      2 UNK        -0.4790 
     65 C          33.9796  -47.1441  -51.2802 C.2       1 UNK         0.5024 
     66 O          32.9382  -47.7560  -51.0422 O.2       1 UNK        -0.4888 
     67 H67        38.2968  -47.4828  -53.6350 H         1 UNK         0.0892 
     68 H68        37.4861  -47.4949  -55.2033 H         1 UNK         0.0892 
     69 H69        37.6768  -45.9785  -54.3204 H         1 UNK         0.0892 
     70 H70        35.7706  -45.3272  -53.3669 H         1 UNK         0.3107 
     71 H71        33.4081  -46.7079  -53.2895 H         1 UNK         0.0773 
     72 H72        32.5635  -44.8849  -51.8317 H         1 UNK         0.0680 
     73 H73        34.1899  -44.3822  -51.4517 H         1 UNK         0.0680 
     74 H74        32.1023  -41.8911  -54.0022 H         1 UNK         0.0650 
     75 H75        31.8271  -42.6398  -52.4538 H         1 UNK         0.0650 
     76 H76        30.2350  -44.5288  -52.2572 H         1 UNK         0.1397 
     77 H77        27.8443  -45.4883  -55.6839 H         1 UNK         0.1363 
     78 H78        31.2433  -42.9194  -56.1077 H         1 UNK         0.1355 
     79 H79        28.8615  -45.0608  -57.8930 H         1 UNK         0.0707 
     80 H80        30.1504  -43.8977  -58.0961 H         1 UNK         0.0707 
     81 H81        27.3783  -42.9950  -60.1712 H         1 UNK         0.1034 
     82 H82        27.3324  -44.5485  -59.3876 H         1 UNK         0.1034 
     83 H83        25.3319  -42.2930  -59.0117 H         1 UNK         0.0482 
     84 H84        23.3002  -45.1043  -60.9752 H         1 UNK         0.3460 
     85 H85        23.5390  -45.1646  -59.2464 H         1 UNK         0.3460 
     86 H86        25.5622  -44.7977  -57.4792 H         1 UNK         0.2989 
     87 H87        24.2978  -43.9548  -55.0105 H         1 UNK         0.0559 
     88 H88        22.0248  -42.9947  -55.1507 H         1 UNK         0.0848 
     89 H89        21.9361  -44.6120  -54.4770 H         1 UNK         0.0848 
     90 H90        21.4789  -44.3287  -56.1561 H         1 UNK         0.0848 
     91 H91        24.5515  -46.1332  -55.2716 H         1 UNK         0.3144 
     92 H92        24.4568  -48.1768  -55.8861 H         1 UNK         0.0727 
     93 H93        23.1224  -50.0490  -56.7883 H         1 UNK         0.0790 
     94 H94        22.2343  -48.9554  -57.8503 H         1 UNK         0.0790 
     95 H95        22.0494  -48.8383  -56.1065 H         1 UNK         0.0790 
     96 H96        24.6249  -49.0355  -58.5540 H         1 UNK         0.3215 
     97 H97        26.7891  -49.2249  -59.3738 H         1 UNK         0.0863 
     98 H98        27.1090  -47.8380  -61.4351 H         1 UNK         0.0808 
     99 H99        26.6537  -46.3810  -60.5606 H         1 UNK         0.0808 
    100 H100       25.4680  -47.6428  -60.8450 H         1 UNK         0.0808 
    101 H101       28.3628  -47.2565  -58.1015 H         1 UNK         0.3118 
    102 H102       31.3889  -48.9057  -58.9034 H         1 UNK         0.0546 
    103 H103       30.7232  -45.9398  -59.2870 H         1 UNK         0.0828 
    104 H104       31.5413  -46.9786  -60.4385 H         1 UNK         0.0828 
    105 H105       32.3208  -46.5900  -58.9152 H         1 UNK         0.0828 
    106 H106       30.7960  -46.9521  -56.9301 H         1 UNK         0.3005 
    107 H107       30.7760  -47.5644  -54.7791 H         1 UNK         0.1257 
    108 H108       28.2061  -47.6970  -55.1081 H         1 UNK         0.0775 
    109 H109       28.2619  -49.2940  -54.4337 H         1 UNK         0.0775 
    110 H110       27.0558  -46.0670  -53.4632 H         1 UNK         0.0840 
    111 H111       27.8993  -45.5008  -52.0468 H         1 UNK         0.0840 
    112 H112       30.3328  -50.2569  -53.7606 H         1 UNK         0.2987 
    113 H113       32.0018  -51.3657  -52.7881 H         1 UNK         0.0785 
    114 H114       31.9395  -52.2685  -55.1567 H         1 UNK         0.0798 
    115 H115       33.1290  -53.1071  -54.1777 H         1 UNK         0.0798 
    116 H116       33.6455  -51.8851  -55.3386 H         1 UNK         0.0798 
    117 H117       34.5062  -49.9783  -53.0873 H         1 UNK         0.3079 
    118 H118       36.0216  -51.9331  -50.4238 H         1 UNK         0.0794 
    119 H119       37.9803  -51.1668  -51.7561 H         1 UNK         0.0786 
    120 H120       36.9357  -50.8332  -53.1352 H         1 UNK         0.0786 
    121 H121       37.1309  -52.4791  -52.5566 H         1 UNK         0.0786 
    122 H122       35.9607  -49.1680  -51.4931 H         1 UNK         0.3032 
    123 H123       34.2985  -47.8813  -48.6879 H         1 UNK         0.1094 
    124 H124       37.3389  -47.6484  -49.0453 H         1 UNK         0.0794 
    125 H125       36.3070  -46.4974  -48.1941 H         1 UNK         0.0794 
    126 H126       36.5173  -48.1224  -47.5653 H         1 UNK         0.0794 
    127 H127       35.8772  -46.6562  -50.7709 H         1 UNK         0.3016 
@<TRIPOS>BOND
     1    1    2 1    
     2    1   67 1    
     3    1   68 1    
     4    1   69 1    
     5    2    3 2    
     6    2    4 am   BACKBONE|DICT|INTERRES
     7    4    5 1    
     8    4   70 1    
     9    5    6 1    
    10    5   65 1    
    11    5   71 1    
    12    6    7 1    
    13    6   72 1    
    14    6   73 1    
    15    7    8 1    
    16    8    9 1    
    17    8   74 1    
    18    8   75 1    
    19    9   10 ar   
    20    9   14 ar   
    21   10   11 ar   
    22   10   76 1    
    23   11   12 ar   
    24   11   48 1    
    25   12   13 ar   
    26   12   77 1    
    27   13   14 ar   
    28   13   15 1    
    29   14   78 1    
    30   15   16 1    
    31   15   79 1    
    32   15   80 1    
    33   16   17 1    
    34   17   18 1    
    35   17   81 1    
    36   17   82 1    
    37   18   19 1    
    38   18   22 1    
    39   18   83 1    
    40   19   20 am   BACKBONE|DICT|INTERRES
    41   19   21 2    
    42   20   84 1    
    43   20   85 1    
    44   22   23 am   BACKBONE|DICT|INTERRES
    45   22   86 1    
    46   23   24 2    
    47   23   25 1    
    48   25   26 1    
    49   25   27 1    
    50   25   87 1    
    51   26   88 1    
    52   26   89 1    
    53   26   90 1    
    54   27   28 am   BACKBONE|DICT|INTERRES
    55   27   91 1    
    56   28   29 2    
    57   28   30 1    
    58   30   31 1    
    59   30   32 1    
    60   30   92 1    
    61   31   93 1    
    62   31   94 1    
    63   31   95 1    
    64   32   33 am   BACKBONE|DICT|INTERRES
    65   32   96 1    
    66   33   34 2    
    67   33   35 1    
    68   35   36 1    
    69   35   37 1    
    70   35   97 1    
    71   36   98 1    
    72   36   99 1    
    73   36  100 1    
    74   37   38 am   BACKBONE|DICT|INTERRES
    75   37  101 1    
    76   38   39 2    
    77   38   40 1    
    78   40   41 1    
    79   40   42 1    
    80   40  102 1    
    81   41  103 1    
    82   41  104 1    
    83   41  105 1    
    84   42   43 am   BACKBONE|DICT|INTERRES
    85   42  106 1    
    86   43   44 2    
    87   43   45 1    
    88   45   46 1    
    89   45   49 1    
    90   45  107 1    
    91   46   47 1    
    92   46  108 1    
    93   46  109 1    
    94   47   48 1    
    95   48  110 1    
    96   48  111 1    
    97   49   50 am   BACKBONE|DICT|INTERRES
    98   49  112 1    
    99   50   51 2    
   100   50   52 1    
   101   52   53 1    
   102   52   54 1    
   103   52  113 1    
   104   53  114 1    
   105   53  115 1    
   106   53  116 1    
   107   54   55 am   BACKBONE|DICT|INTERRES
   108   54  117 1    
   109   55   56 2    
   110   55   57 1    
   111   57   58 1    
   112   57   59 1    
   113   57  118 1    
   114   58  119 1    
   115   58  120 1    
   116   58  121 1    
   117   59   60 am   BACKBONE|DICT|INTERRES
   118   59  122 1    
   119   60   61 2    
   120   60   62 1    
   121   62   63 1    
   122   62   64 1    
   123   62  123 1    
   124   63  124 1    
   125   63  125 1    
   126   63  126 1    
   127   64   65 am   BACKBONE|DICT|INTERRES
   128   64  127 1    
   129   65   66 2    
@<TRIPOS>SUBSTRUCTURE
     1 UNK         1 GROUP             0       ****    0 ROOT    
