@<TRIPOS>MOLECULE
3R134
127   129    1
SMALL
USER_CHARGES


@<TRIPOS>ATOM
      1 CA         32.7319  -40.2889  -57.4967 C.3       0 UNK        -0.1968 
      2 C          32.6816  -41.3073  -56.3674 C.2       0 UNK         0.4852 
      3 O          31.9774  -41.0920  -55.3801 O.2       0 UNK        -0.5359 
      4 N          33.4182  -42.4134  -56.5066 N.am      1 UNK        -0.4300 
      5 CA         33.4344  -43.5380  -55.5781 C.3       1 UNK         0.0863 
      6 C6         34.3822  -43.3063  -54.3739 C.3       11 UNK        -0.0953 
      7 S7         33.9150  -44.3111  -52.9251 S.3       11 UNK        -0.2369 
      8 C8         32.5592  -43.3239  -52.2146 C.3       11 UNK         0.0226 
      9 C9         31.2886  -44.1513  -52.0837 C.ar      11 UNK        -0.0699 
     10 C10        31.0518  -44.8934  -50.9244 C.ar      11 UNK        -0.0804 
     11 C11        29.8773  -45.6376  -50.7859 C.ar      11 UNK        -0.0871 
     12 C12        28.9429  -45.6462  -51.8268 C.ar      11 UNK        -0.1008 
     13 C13        29.1689  -44.9238  -53.0041 C.ar      11 UNK        -0.0735 
     14 C14        30.3438  -44.1665  -53.1139 C.ar      11 UNK        -0.0945 
     15 C15        28.1221  -45.0084  -54.1208 C.3       11 UNK         0.0169 
     16 S16        28.1847  -43.6832  -55.3796 S.3       11 UNK        -0.2669 
     17 C17        29.4960  -44.2753  -56.5082 C.3       11 UNK        -0.0850 
     18 CA         29.1227  -44.1002  -58.0026 C.3       10 UNK         0.0855 
     19 C          30.3356  -44.4193  -58.9217 C.2       10 UNK         0.5543 
     20 N          30.2664  -45.4185  -59.7931 N.am      10 UNK        -0.7343 
     21 O          31.3526  -43.7354  -58.8496 O.2       10 UNK        -0.5027 
     22 N          27.8945  -44.8310  -58.3523 N.am      10 UNK        -0.4495 
     23 C          27.0216  -44.4426  -59.2938 C.2       10 UNK         0.4903 
     24 O          27.1700  -43.4343  -59.9854 O.2       10 UNK        -0.4860 
     25 CA         25.7652  -45.3101  -59.5185 C.3       9 UNK         0.0227 
     26 CB         25.8911  -46.1074  -60.8274 C.3       9 UNK        -0.1964 
     27 N          25.4937  -46.2393  -58.4208 N.am      9 UNK        -0.4231 
     28 C          25.1027  -45.8910  -57.1874 C.2       9 UNK         0.5014 
     29 O          24.7480  -44.7519  -56.8818 O.2       9 UNK        -0.5270 
     30 CA         25.1277  -46.9861  -56.1018 C.3       8 UNK         0.0284 
     31 CB         23.6992  -47.3477  -55.6625 C.3       8 UNK        -0.1977 
     32 N          25.8367  -48.2217  -56.4618 N.am      8 UNK        -0.4342 
     33 C          27.1294  -48.3411  -56.7942 C.2       8 UNK         0.5039 
     34 O          27.8928  -47.3829  -56.9266 O.2       8 UNK        -0.5547 
     35 CA         27.6345  -49.7794  -57.0132 C.3       7 UNK         0.0281 
     36 CB         29.0547  -49.8283  -57.5994 C.3       7 UNK        -0.1963 
     37 N          27.6134  -50.5205  -55.7522 N.am      7 UNK        -0.4444 
     38 C          26.5161  -51.0574  -55.1984 C.2       7 UNK         0.5104 
     39 O          25.4160  -51.0710  -55.7531 O.2       7 UNK        -0.5100 
     40 CA         26.6473  -51.6326  -53.7756 C.3       6 UNK         0.0396 
     41 CB         26.8731  -53.1516  -53.8313 C.3       6 UNK        -0.1801 
     42 N          27.7193  -51.0143  -52.9908 N.am      6 UNK        -0.4747 
     43 C          27.7880  -49.7183  -52.6461 C.2       6 UNK         0.5012 
     44 O          26.8953  -48.9029  -52.8786 O.2       6 UNK        -0.5003 
     45 CA         29.0754  -49.2417  -51.9402 C.3       5 UNK         0.0782 
     46 C46        28.7865  -48.9417  -50.4499 C.3       11 UNK        -0.0868 
     47 S47        30.1906  -48.1350  -49.6099 S.3       11 UNK        -0.2515 
     48 C48        29.6168  -46.4094  -49.4996 C.3       11 UNK         0.0199 
     49 N          30.2114  -50.1604  -52.1064 N.am      5 UNK        -0.4607 
     50 C          30.8259  -50.4134  -53.2677 C.2       4 UNK         0.5031 
     51 O          30.4650  -49.9526  -54.3534 O.2       4 UNK        -0.5119 
     52 CA         32.0061  -51.3848  -53.2169 C.3       4 UNK         0.0263 
     53 CB         31.5390  -52.8303  -53.4620 C.3       4 UNK        -0.1967 
     54 N          32.9569  -50.9872  -54.2471 N.am      4 UNK        -0.4237 
     55 C          34.2860  -51.1155  -54.1694 C.2       3 UNK         0.4908 
     56 O          34.8639  -51.6881  -53.2442 O.2       3 UNK        -0.5102 
     57 CA         35.1254  -50.5029  -55.3080 C.3       3 UNK         0.0241 
     58 CB         35.5663  -51.5969  -56.2948 C.3       3 UNK        -0.1971 
     59 N          34.4551  -49.4281  -56.0508 N.am      3 UNK        -0.4139 
     60 C          34.1070  -48.2389  -55.5396 C.2       2 UNK         0.5016 
     61 O          34.2959  -47.9146  -54.3646 O.2       2 UNK        -0.5319 
     62 CA         33.4195  -47.2654  -56.5078 C.3       2 UNK         0.0286 
     63 CB         32.0122  -47.7607  -56.8796 C.3       2 UNK        -0.1963 
     64 N          33.2859  -45.9510  -55.8857 N.am      2 UNK        -0.4790 
     65 C          33.7610  -44.8060  -56.3813 C.2       1 UNK         0.5024 
     66 O          34.4155  -44.7196  -57.4246 O.2       1 UNK        -0.4888 
     67 H67        33.3962  -40.6053  -58.3007 H         1 UNK         0.0892 
     68 H68        31.7363  -40.1477  -57.9167 H         1 UNK         0.0892 
     69 H69        33.0848  -39.3286  -57.1218 H         1 UNK         0.0892 
     70 H70        33.9351  -42.5879  -57.3606 H         1 UNK         0.3107 
     71 H71        32.4183  -43.6581  -55.2056 H         1 UNK         0.0773 
     72 H72        34.3712  -42.2584  -54.0700 H         1 UNK         0.0680 
     73 H73        35.4185  -43.5227  -54.6401 H         1 UNK         0.0680 
     74 H74        32.3633  -42.4413  -52.8255 H         1 UNK         0.0650 
     75 H75        32.8682  -42.9516  -51.2369 H         1 UNK         0.0650 
     76 H76        31.7811  -44.8847  -50.1256 H         1 UNK         0.1397 
     77 H77        28.0339  -46.2234  -51.7227 H         1 UNK         0.1363 
     78 H78        30.5327  -43.5752  -53.9951 H         1 UNK         0.1355 
     79 H79        28.1982  -45.9810  -54.6084 H         1 UNK         0.0707 
     80 H80        27.1288  -44.9745  -53.6707 H         1 UNK         0.0707 
     81 H81        29.7327  -45.3198  -56.2953 H         1 UNK         0.1034 
     82 H82        30.3964  -43.7031  -56.2872 H         1 UNK         0.1034 
     83 H83        28.9270  -43.0360  -58.1489 H         1 UNK         0.0482 
     84 H84        29.4334  -45.9804  -59.8551 H         1 UNK         0.3460 
     85 H85        31.0553  -45.6095  -60.3896 H         1 UNK         0.3460 
     86 H86        27.7342  -45.6925  -57.8357 H         1 UNK         0.2989 
     87 H87        24.9125  -44.6341  -59.6090 H         1 UNK         0.0559 
     88 H88        26.7233  -46.8117  -60.7948 H         1 UNK         0.0848 
     89 H89        26.0619  -45.4419  -61.6750 H         1 UNK         0.0848 
     90 H90        24.9817  -46.6698  -61.0398 H         1 UNK         0.0848 
     91 H91        25.7600  -47.2017  -58.5660 H         1 UNK         0.3144 
     92 H92        25.6495  -46.5603  -55.2425 H         1 UNK         0.0727 
     93 H93        23.7068  -48.0397  -54.8198 H         1 UNK         0.0790 
     94 H94        23.1334  -47.8090  -56.4729 H         1 UNK         0.0790 
     95 H95        23.1496  -46.4606  -55.3441 H         1 UNK         0.0790 
     96 H96        25.3179  -49.0867  -56.3471 H         1 UNK         0.3215 
     97 H97        26.9643  -50.2611  -57.7288 H         1 UNK         0.0863 
     98 H98        29.7793  -49.4081  -56.9049 H         1 UNK         0.0808 
     99 H99        29.1194  -49.2591  -58.5276 H         1 UNK         0.0808 
    100 H100       29.3586  -50.8513  -57.8209 H         1 UNK         0.0808 
    101 H101       28.4672  -50.4947  -55.2065 H         1 UNK         0.3118 
    102 H102       25.7051  -51.4435  -53.2573 H         1 UNK         0.0546 
    103 H103       26.8831  -53.5895  -52.8330 H         1 UNK         0.0828 
    104 H104       27.8156  -53.4032  -54.3194 H         1 UNK         0.0828 
    105 H105       26.0758  -53.6439  -54.3900 H         1 UNK         0.0828 
    106 H106       28.4979  -51.6066  -52.7415 H         1 UNK         0.3005 
    107 H107       29.3541  -48.3075  -52.4320 H         1 UNK         0.1257 
    108 H108       28.5584  -49.8657  -49.9151 H         1 UNK         0.0775 
    109 H109       27.9003  -48.3134  -50.3430 H         1 UNK         0.0775 
    110 H110       28.5577  -46.3748  -49.2400 H         1 UNK         0.0840 
    111 H111       30.1375  -45.9272  -48.6706 H         1 UNK         0.0840 
    112 H112       30.5685  -50.5761  -51.2580 H         1 UNK         0.2987 
    113 H113       32.4775  -51.3114  -52.2341 H         1 UNK         0.0785 
    114 H114       32.3774  -53.5266  -53.4334 H         1 UNK         0.0798 
    115 H115       30.8285  -53.1489  -52.6984 H         1 UNK         0.0798 
    116 H116       31.0497  -52.9366  -54.4313 H         1 UNK         0.0798 
    117 H117       32.5489  -50.4640  -55.0113 H         1 UNK         0.3079 
    118 H118       36.0206  -50.0766  -54.8500 H         1 UNK         0.0794 
    119 H119       36.2420  -51.2004  -57.0530 H         1 UNK         0.0786 
    120 H120       34.7141  -52.0483  -56.8046 H         1 UNK         0.0786 
    121 H121       36.0979  -52.3977  -55.7785 H         1 UNK         0.0786 
    122 H122       34.2611  -49.6127  -57.0249 H         1 UNK         0.3032 
    123 H123       34.0302  -47.2053  -57.4118 H         1 UNK         0.1094 
    124 H124       31.3772  -47.8634  -55.9982 H         1 UNK         0.0794 
    125 H125       31.5176  -47.0717  -57.5644 H         1 UNK         0.0794 
    126 H126       32.0499  -48.7307  -57.3760 H         1 UNK         0.0794 
    127 H127       32.8869  -45.9527  -54.9556 H         1 UNK         0.3016 
@<TRIPOS>BOND
     1    1    2 1    
     2    1   67 1    
     3    1   68 1    
     4    1   69 1    
     5    2    3 2    
     6    2    4 am   BACKBONE|DICT|INTERRES
     7    4    5 1    
     8    4   70 1    
     9    5    6 1    
    10    5   65 1    
    11    5   71 1    
    12    6    7 1    
    13    6   72 1    
    14    6   73 1    
    15    7    8 1    
    16    8    9 1    
    17    8   74 1    
    18    8   75 1    
    19    9   10 ar   
    20    9   14 ar   
    21   10   11 ar   
    22   10   76 1    
    23   11   12 ar   
    24   11   48 1    
    25   12   13 ar   
    26   12   77 1    
    27   13   14 ar   
    28   13   15 1    
    29   14   78 1    
    30   15   16 1    
    31   15   79 1    
    32   15   80 1    
    33   16   17 1    
    34   17   18 1    
    35   17   81 1    
    36   17   82 1    
    37   18   19 1    
    38   18   22 1    
    39   18   83 1    
    40   19   20 am   BACKBONE|DICT|INTERRES
    41   19   21 2    
    42   20   84 1    
    43   20   85 1    
    44   22   23 am   BACKBONE|DICT|INTERRES
    45   22   86 1    
    46   23   24 2    
    47   23   25 1    
    48   25   26 1    
    49   25   27 1    
    50   25   87 1    
    51   26   88 1    
    52   26   89 1    
    53   26   90 1    
    54   27   28 am   BACKBONE|DICT|INTERRES
    55   27   91 1    
    56   28   29 2    
    57   28   30 1    
    58   30   31 1    
    59   30   32 1    
    60   30   92 1    
    61   31   93 1    
    62   31   94 1    
    63   31   95 1    
    64   32   33 am   BACKBONE|DICT|INTERRES
    65   32   96 1    
    66   33   34 2    
    67   33   35 1    
    68   35   36 1    
    69   35   37 1    
    70   35   97 1    
    71   36   98 1    
    72   36   99 1    
    73   36  100 1    
    74   37   38 am   BACKBONE|DICT|INTERRES
    75   37  101 1    
    76   38   39 2    
    77   38   40 1    
    78   40   41 1    
    79   40   42 1    
    80   40  102 1    
    81   41  103 1    
    82   41  104 1    
    83   41  105 1    
    84   42   43 am   BACKBONE|DICT|INTERRES
    85   42  106 1    
    86   43   44 2    
    87   43   45 1    
    88   45   46 1    
    89   45   49 1    
    90   45  107 1    
    91   46   47 1    
    92   46  108 1    
    93   46  109 1    
    94   47   48 1    
    95   48  110 1    
    96   48  111 1    
    97   49   50 am   BACKBONE|DICT|INTERRES
    98   49  112 1    
    99   50   51 2    
   100   50   52 1    
   101   52   53 1    
   102   52   54 1    
   103   52  113 1    
   104   53  114 1    
   105   53  115 1    
   106   53  116 1    
   107   54   55 am   BACKBONE|DICT|INTERRES
   108   54  117 1    
   109   55   56 2    
   110   55   57 1    
   111   57   58 1    
   112   57   59 1    
   113   57  118 1    
   114   58  119 1    
   115   58  120 1    
   116   58  121 1    
   117   59   60 am   BACKBONE|DICT|INTERRES
   118   59  122 1    
   119   60   61 2    
   120   60   62 1    
   121   62   63 1    
   122   62   64 1    
   123   62  123 1    
   124   63  124 1    
   125   63  125 1    
   126   63  126 1    
   127   64   65 am   BACKBONE|DICT|INTERRES
   128   64  127 1    
   129   65   66 2    
@<TRIPOS>SUBSTRUCTURE
     1 UNK         1 GROUP             0       ****    0 ROOT    
