@<TRIPOS>MOLECULE
3R134
127   129    1
SMALL
USER_CHARGES


@<TRIPOS>ATOM
      1 CA         26.4083  -49.1740  -52.0024 C.3       0 UNK        -0.1968 
      2 C          27.5622  -48.5079  -51.2678 C.2       0 UNK         0.4852 
      3 O          27.6978  -48.6816  -50.0549 O.2       0 UNK        -0.5359 
      4 N          28.3849  -47.7398  -51.9928 N.am      1 UNK        -0.4300 
      5 CA         29.5890  -47.0786  -51.4806 C.3       1 UNK         0.0863 
      6 C6         30.0858  -45.9485  -52.4220 C.3       11 UNK        -0.0953 
      7 S7         30.4839  -46.4630  -54.1285 S.3       11 UNK        -0.2369 
      8 C8         30.8678  -44.8401  -54.8620 C.3       11 UNK         0.0226 
      9 C9         31.1186  -44.9377  -56.3604 C.ar      11 UNK        -0.0699 
     10 C10        32.2481  -45.6033  -56.8398 C.ar      11 UNK        -0.0804 
     11 C11        32.4853  -45.7127  -58.2110 C.ar      11 UNK        -0.0871 
     12 C12        31.5856  -45.1333  -59.1098 C.ar      11 UNK        -0.1008 
     13 C13        30.4438  -44.4654  -58.6519 C.ar      11 UNK        -0.0735 
     14 C14        30.2268  -44.3616  -57.2701 C.ar      11 UNK        -0.0945 
     15 C15        29.4817  -43.8755  -59.6854 C.3       11 UNK         0.0169 
     16 S16        27.7422  -43.7373  -59.1451 S.3       11 UNK        -0.2669 
     17 C17        27.7313  -42.0408  -58.4643 C.3       11 UNK        -0.0850 
     18 CA         26.5310  -41.7445  -57.5239 C.3       10 UNK         0.0855 
     19 C          25.1661  -41.6311  -58.2643 C.2       10 UNK         0.5543 
     20 N          24.0830  -42.2333  -57.7806 N.am      10 UNK        -0.7343 
     21 O          25.0769  -40.9563  -59.2873 O.2       10 UNK        -0.5027 
     22 N          26.4830  -42.6357  -56.3611 N.am      10 UNK        -0.4495 
     23 C          27.2133  -42.5440  -55.2513 C.2       10 UNK         0.4903 
     24 O          28.1234  -41.7288  -55.1008 O.2       10 UNK        -0.4860 
     25 CA         26.8833  -43.5156  -54.0997 C.3       9 UNK         0.0227 
     26 CB         26.0613  -42.7993  -53.0116 C.3       9 UNK        -0.1964 
     27 N          26.2425  -44.7881  -54.4742 N.am      9 UNK        -0.4231 
     28 C          25.0521  -45.0242  -55.0444 C.2       9 UNK         0.5014 
     29 O          24.3048  -44.1362  -55.4626 O.2       9 UNK        -0.5270 
     30 CA         24.6550  -46.5071  -55.2066 C.3       8 UNK         0.0284 
     31 CB         23.2407  -46.6776  -55.7928 C.3       8 UNK        -0.1977 
     32 N          25.6037  -47.2625  -56.0317 N.am      8 UNK        -0.4342 
     33 C          26.8300  -47.6398  -55.6523 C.2       8 UNK         0.5039 
     34 O          27.3081  -47.3679  -54.5484 O.2       8 UNK        -0.5547 
     35 CA         27.6657  -48.4014  -56.6899 C.3       7 UNK         0.0281 
     36 CB         28.1926  -47.4415  -57.7677 C.3       7 UNK        -0.1963 
     37 N          28.8093  -49.0663  -56.0687 N.am      7 UNK        -0.4444 
     38 C          28.7702  -50.2411  -55.4279 C.2       7 UNK         0.5104 
     39 O          27.7412  -50.9024  -55.2754 O.2       7 UNK        -0.5100 
     40 CA         30.1237  -50.7728  -54.9045 C.3       6 UNK         0.0396 
     41 CB         30.0953  -52.2815  -54.5856 C.3       6 UNK        -0.1801 
     42 N          31.2523  -50.4489  -55.7900 N.am      6 UNK        -0.4747 
     43 C          31.3715  -50.7604  -57.0933 C.2       6 UNK         0.5012 
     44 O          30.5805  -51.4797  -57.7047 O.2       6 UNK        -0.5003 
     45 CA         32.5381  -50.1126  -57.8682 C.3       5 UNK         0.0782 
     46 C46        32.0267  -48.8160  -58.5388 C.3       11 UNK        -0.0868 
     47 S47        33.2518  -48.0052  -59.6241 S.3       11 UNK        -0.2515 
     48 C48        33.6988  -46.4892  -58.7089 C.3       11 UNK         0.0199 
     49 N          33.7169  -49.8863  -57.0234 N.am      5 UNK        -0.4607 
     50 C          34.4913  -50.8707  -56.5501 C.2       4 UNK         0.5031 
     51 O          34.3243  -52.0581  -56.8315 O.2       4 UNK        -0.5119 
     52 CA         35.6542  -50.4922  -55.6134 C.3       4 UNK         0.0263 
     53 CB         36.9687  -50.4303  -56.4096 C.3       4 UNK        -0.1967 
     54 N          35.5167  -49.2554  -54.8302 N.am      4 UNK        -0.4237 
     55 C          34.4952  -48.9134  -54.0320 C.2       3 UNK         0.4908 
     56 O          33.4047  -49.4875  -54.0156 O.2       3 UNK        -0.5102 
     57 CA         34.7505  -47.7108  -53.1042 C.3       3 UNK         0.0241 
     58 CB         34.5959  -46.3764  -53.8487 C.3       3 UNK        -0.1971 
     59 N          33.8522  -47.7054  -51.9503 N.am      3 UNK        -0.4139 
     60 C          33.9116  -48.5545  -50.9160 C.2       2 UNK         0.5016 
     61 O          34.8009  -49.3950  -50.7703 O.2       2 UNK        -0.5319 
     62 CA         32.8082  -48.4344  -49.8462 C.3       2 UNK         0.0286 
     63 CB         33.3742  -47.8171  -48.5561 C.3       2 UNK        -0.1963 
     64 N          31.6475  -47.6457  -50.2798 N.am      2 UNK        -0.4790 
     65 C          30.7061  -48.0858  -51.1270 C.2       1 UNK         0.5024 
     66 O          30.7133  -49.2159  -51.6191 O.2       1 UNK        -0.4888 
     67 H67        26.7156  -49.5083  -52.9930 H         1 UNK         0.0892 
     68 H68        25.5795  -48.4759  -52.1156 H         1 UNK         0.0892 
     69 H69        26.0523  -50.0446  -51.4524 H         1 UNK         0.0892 
     70 H70        28.1993  -47.6223  -52.9893 H         1 UNK         0.3107 
     71 H71        29.3005  -46.6014  -50.5413 H         1 UNK         0.0773 
     72 H72        29.3150  -45.1798  -52.4780 H         1 UNK         0.0680 
     73 H73        30.9596  -45.4504  -51.9985 H         1 UNK         0.0680 
     74 H74        31.7486  -44.4213  -54.3737 H         1 UNK         0.0650 
     75 H75        30.0463  -44.1521  -54.6592 H         1 UNK         0.0650 
     76 H76        32.9332  -46.0607  -56.1446 H         1 UNK         0.1397 
     77 H77        31.7666  -45.2253  -60.1723 H         1 UNK         0.1363 
     78 H78        29.3539  -43.8505  -56.8931 H         1 UNK         0.1355 
     79 H79        29.8499  -42.8983  -60.0003 H         1 UNK         0.0707 
     80 H80        29.4888  -44.5042  -60.5773 H         1 UNK         0.0707 
     81 H81        27.7488  -41.3328  -59.2949 H         1 UNK         0.1034 
     82 H82        28.6619  -41.8680  -57.9225 H         1 UNK         0.1034 
     83 H83        26.6861  -40.7383  -57.1302 H         1 UNK         0.0482 
     84 H84        23.2132  -42.1310  -58.2788 H         1 UNK         0.3460 
     85 H85        24.1029  -42.7787  -56.9271 H         1 UNK         0.3460 
     86 H86        25.7278  -43.3126  -56.3580 H         1 UNK         0.2989 
     87 H87        27.8396  -43.7924  -53.6569 H         1 UNK         0.0559 
     88 H88        26.5731  -41.9015  -52.6621 H         1 UNK         0.0848 
     89 H89        25.9070  -43.4411  -52.1442 H         1 UNK         0.0848 
     90 H90        25.0822  -42.4911  -53.3799 H         1 UNK         0.0848 
     91 H91        26.7945  -45.6237  -54.2809 H         1 UNK         0.3144 
     92 H92        24.6499  -46.9436  -54.2054 H         1 UNK         0.0727 
     93 H93        22.9492  -47.7274  -55.8290 H         1 UNK         0.0790 
     94 H94        23.1700  -46.2731  -56.8034 H         1 UNK         0.0790 
     95 H95        22.4997  -46.1597  -55.1822 H         1 UNK         0.0790 
     96 H96        25.2986  -47.4862  -56.9683 H         1 UNK         0.3215 
     97 H97        27.0315  -49.1545  -57.1628 H         1 UNK         0.0863 
     98 H98        28.7725  -47.9696  -58.5246 H         1 UNK         0.0808 
     99 H99        28.8325  -46.6754  -57.3328 H         1 UNK         0.0808 
    100 H100       27.3792  -46.9299  -58.2837 H         1 UNK         0.0808 
    101 H101       29.6799  -48.5562  -56.0664 H         1 UNK         0.3118 
    102 H102       30.3140  -50.2418  -53.9725 H         1 UNK         0.0546 
    103 H103       31.0557  -52.6211  -54.1980 H         1 UNK         0.0828 
    104 H104       29.8576  -52.8776  -55.4670 H         1 UNK         0.0828 
    105 H105       29.3437  -52.5059  -53.8278 H         1 UNK         0.0828 
    106 H106       31.9982  -49.9141  -55.3512 H         1 UNK         0.3005 
    107 H107       32.8227  -50.8124  -58.6577 H         1 UNK         0.1257 
    108 H108       31.6613  -48.1245  -57.7807 H         1 UNK         0.0775 
    109 H109       31.1611  -49.0367  -59.1670 H         1 UNK         0.0775 
    110 H110       34.3529  -46.7617  -57.8794 H         1 UNK         0.0840 
    111 H111       34.2911  -45.8460  -59.3612 H         1 UNK         0.0840 
    112 H112       33.9178  -48.9351  -56.7574 H         1 UNK         0.2987 
    113 H113       35.7391  -51.3048  -54.8891 H         1 UNK         0.0785 
    114 H114       37.8298  -50.3146  -55.7511 H         1 UNK         0.0798 
    115 H115       36.9710  -49.6006  -57.1177 H         1 UNK         0.0798 
    116 H116       37.1254  -51.3463  -56.9815 H         1 UNK         0.0798 
    117 H117       36.3477  -48.6828  -54.7877 H         1 UNK         0.3079 
    118 H118       35.7761  -47.7853  -52.7360 H         1 UNK         0.0794 
    119 H119       35.1360  -46.3735  -54.7964 H         1 UNK         0.0786 
    120 H120       34.9863  -45.5504  -53.2538 H         1 UNK         0.0786 
    121 H121       33.5495  -46.1615  -54.0561 H         1 UNK         0.0786 
    122 H122       33.0581  -47.0861  -51.9986 H         1 UNK         0.3032 
    123 H123       32.4721  -49.4494  -49.6209 H         1 UNK         0.1094 
    124 H124       33.7274  -46.7977  -48.7163 H         1 UNK         0.0794 
    125 H125       32.6251  -47.7944  -47.7644 H         1 UNK         0.0794 
    126 H126       34.2183  -48.3987  -48.1824 H         1 UNK         0.0794 
    127 H127       31.5721  -46.7103  -49.9044 H         1 UNK         0.3016 
@<TRIPOS>BOND
     1    1    2 1    
     2    1   67 1    
     3    1   68 1    
     4    1   69 1    
     5    2    3 2    
     6    2    4 am   BACKBONE|DICT|INTERRES
     7    4    5 1    
     8    4   70 1    
     9    5    6 1    
    10    5   65 1    
    11    5   71 1    
    12    6    7 1    
    13    6   72 1    
    14    6   73 1    
    15    7    8 1    
    16    8    9 1    
    17    8   74 1    
    18    8   75 1    
    19    9   10 ar   
    20    9   14 ar   
    21   10   11 ar   
    22   10   76 1    
    23   11   12 ar   
    24   11   48 1    
    25   12   13 ar   
    26   12   77 1    
    27   13   14 ar   
    28   13   15 1    
    29   14   78 1    
    30   15   16 1    
    31   15   79 1    
    32   15   80 1    
    33   16   17 1    
    34   17   18 1    
    35   17   81 1    
    36   17   82 1    
    37   18   19 1    
    38   18   22 1    
    39   18   83 1    
    40   19   20 am   BACKBONE|DICT|INTERRES
    41   19   21 2    
    42   20   84 1    
    43   20   85 1    
    44   22   23 am   BACKBONE|DICT|INTERRES
    45   22   86 1    
    46   23   24 2    
    47   23   25 1    
    48   25   26 1    
    49   25   27 1    
    50   25   87 1    
    51   26   88 1    
    52   26   89 1    
    53   26   90 1    
    54   27   28 am   BACKBONE|DICT|INTERRES
    55   27   91 1    
    56   28   29 2    
    57   28   30 1    
    58   30   31 1    
    59   30   32 1    
    60   30   92 1    
    61   31   93 1    
    62   31   94 1    
    63   31   95 1    
    64   32   33 am   BACKBONE|DICT|INTERRES
    65   32   96 1    
    66   33   34 2    
    67   33   35 1    
    68   35   36 1    
    69   35   37 1    
    70   35   97 1    
    71   36   98 1    
    72   36   99 1    
    73   36  100 1    
    74   37   38 am   BACKBONE|DICT|INTERRES
    75   37  101 1    
    76   38   39 2    
    77   38   40 1    
    78   40   41 1    
    79   40   42 1    
    80   40  102 1    
    81   41  103 1    
    82   41  104 1    
    83   41  105 1    
    84   42   43 am   BACKBONE|DICT|INTERRES
    85   42  106 1    
    86   43   44 2    
    87   43   45 1    
    88   45   46 1    
    89   45   49 1    
    90   45  107 1    
    91   46   47 1    
    92   46  108 1    
    93   46  109 1    
    94   47   48 1    
    95   48  110 1    
    96   48  111 1    
    97   49   50 am   BACKBONE|DICT|INTERRES
    98   49  112 1    
    99   50   51 2    
   100   50   52 1    
   101   52   53 1    
   102   52   54 1    
   103   52  113 1    
   104   53  114 1    
   105   53  115 1    
   106   53  116 1    
   107   54   55 am   BACKBONE|DICT|INTERRES
   108   54  117 1    
   109   55   56 2    
   110   55   57 1    
   111   57   58 1    
   112   57   59 1    
   113   57  118 1    
   114   58  119 1    
   115   58  120 1    
   116   58  121 1    
   117   59   60 am   BACKBONE|DICT|INTERRES
   118   59  122 1    
   119   60   61 2    
   120   60   62 1    
   121   62   63 1    
   122   62   64 1    
   123   62  123 1    
   124   63  124 1    
   125   63  125 1    
   126   63  126 1    
   127   64   65 am   BACKBONE|DICT|INTERRES
   128   64  127 1    
   129   65   66 2    
@<TRIPOS>SUBSTRUCTURE
     1 UNK         1 GROUP             0       ****    0 ROOT    
