@<TRIPOS>MOLECULE
3R134
127   129    1
SMALL
USER_CHARGES


@<TRIPOS>ATOM
      1 CA         37.5825  -45.1619  -55.5329 C.3       0 UNK        -0.1968 
      2 C          36.3377  -45.7228  -54.8610 C.2       0 UNK         0.4852 
      3 O          36.0126  -45.3092  -53.7475 O.2       0 UNK        -0.5359 
      4 N          35.6488  -46.6567  -55.5350 N.am      1 UNK        -0.4300 
      5 CA         34.4140  -47.3286  -55.0952 C.3       1 UNK         0.0863 
      6 C6         33.1915  -46.3775  -54.9744 C.3       11 UNK        -0.0953 
      7 S7         32.8981  -45.4205  -56.5009 S.3       11 UNK        -0.2369 
      8 C8         33.0622  -43.7096  -55.9013 C.3       11 UNK         0.0226 
      9 C9         31.7796  -43.2388  -55.2333 C.ar      11 UNK        -0.0699 
     10 C10        31.6183  -43.3403  -53.8483 C.ar      11 UNK        -0.0804 
     11 C11        30.4202  -42.9477  -53.2445 C.ar      11 UNK        -0.0871 
     12 C12        29.3863  -42.4343  -54.0343 C.ar      11 UNK        -0.1008 
     13 C13        29.5405  -42.3134  -55.4183 C.ar      11 UNK        -0.0735 
     14 C14        30.7439  -42.7113  -56.0097 C.ar      11 UNK        -0.0945 
     15 C15        28.4076  -41.7523  -56.2687 C.3       11 UNK         0.0169 
     16 S16        27.9020  -42.9238  -57.5645 S.3       11 UNK        -0.2669 
     17 C17        26.3169  -42.2163  -58.1270 C.3       11 UNK        -0.0850 
     18 CA         25.1065  -43.0848  -57.6961 C.3       10 UNK         0.0855 
     19 C          23.7748  -42.4261  -58.1472 C.2       10 UNK         0.5543 
     20 N          23.1686  -41.6091  -57.2969 N.am      10 UNK        -0.7343 
     21 O          23.3144  -42.6113  -59.2725 O.2       10 UNK        -0.5027 
     22 N          25.2521  -44.4663  -58.1746 N.am      10 UNK        -0.4495 
     23 C          24.4766  -45.5050  -57.8529 C.2       10 UNK         0.4903 
     24 O          23.5215  -45.4342  -57.0790 O.2       10 UNK        -0.4860 
     25 CA         24.8364  -46.8688  -58.4723 C.3       9 UNK         0.0227 
     26 CB         24.2358  -47.0164  -59.8839 C.3       9 UNK        -0.1964 
     27 N          26.2718  -47.1951  -58.4500 N.am      9 UNK        -0.4231 
     28 C          27.2869  -46.6253  -59.1220 C.2       9 UNK         0.5014 
     29 O          27.1342  -45.7044  -59.9260 O.2       9 UNK        -0.5270 
     30 CA         28.7145  -47.1432  -58.8519 C.3       8 UNK         0.0284 
     31 CB         29.6467  -46.0057  -58.4026 C.3       8 UNK        -0.1977 
     32 N          28.7497  -48.1979  -57.8380 N.am      8 UNK        -0.4342 
     33 C          28.7009  -49.5126  -58.0943 C.2       8 UNK         0.5039 
     34 O          28.6989  -49.9901  -59.2292 O.2       8 UNK        -0.5547 
     35 CA         28.6043  -50.4587  -56.8823 C.3       7 UNK         0.0281 
     36 CB         29.9875  -51.0318  -56.5318 C.3       7 UNK        -0.1963 
     37 N          28.0143  -49.8203  -55.6992 N.am      7 UNK        -0.4444 
     38 C          26.7355  -49.4159  -55.6241 C.2       7 UNK         0.5104 
     39 O          25.9260  -49.5672  -56.5385 O.2       7 UNK        -0.5100 
     40 CA         26.2778  -48.6812  -54.3505 C.3       6 UNK         0.0396 
     41 CB         25.5174  -49.6447  -53.4260 C.3       6 UNK        -0.1801 
     42 N          27.3601  -48.0477  -53.5952 N.am      6 UNK        -0.4747 
     43 C          28.1666  -47.0722  -54.0428 C.2       6 UNK         0.5012 
     44 O          28.0815  -46.5790  -55.1674 O.2       6 UNK        -0.5003 
     45 CA         29.3015  -46.6398  -53.0891 C.3       5 UNK         0.0782 
     46 C46        28.8206  -45.5098  -52.1472 C.3       11 UNK        -0.0868 
     47 S47        30.2040  -44.8124  -51.1813 S.3       11 UNK        -0.2515 
     48 C48        30.2389  -43.0766  -51.7378 C.3       11 UNK         0.0199 
     49 N          29.8348  -47.7845  -52.3318 N.am      5 UNK        -0.4607 
     50 C          30.4137  -48.8572  -52.8834 C.2       4 UNK         0.5031 
     51 O          30.6270  -48.9730  -54.0919 O.2       4 UNK        -0.5119 
     52 CA         30.7133  -50.0361  -51.9537 C.3       4 UNK         0.0263 
     53 CB         29.4411  -50.8986  -51.8011 C.3       4 UNK        -0.1967 
     54 N          31.8052  -50.7945  -52.5564 N.am      4 UNK        -0.4237 
     55 C          32.3938  -51.9021  -52.0911 C.2       3 UNK         0.4908 
     56 O          32.0731  -52.4813  -51.0528 O.2       3 UNK        -0.5102 
     57 CA         33.5708  -52.4351  -52.9253 C.3       3 UNK         0.0241 
     58 CB         33.0832  -53.0223  -54.2617 C.3       3 UNK        -0.1971 
     59 N          34.5729  -51.3957  -53.1752 N.am      3 UNK        -0.4139 
     60 C          35.3517  -50.8502  -52.2291 C.2       2 UNK         0.5016 
     61 O          35.3803  -51.2330  -51.0586 O.2       2 UNK        -0.5319 
     62 CA         36.2571  -49.6788  -52.6500 C.3       2 UNK         0.0286 
     63 CB         37.6805  -50.1786  -52.9471 C.3       2 UNK        -0.1963 
     64 N          35.7697  -48.9081  -53.8000 N.am      2 UNK        -0.4790 
     65 C          34.6484  -48.1697  -53.8192 C.2       1 UNK         0.5024 
     66 O          33.8459  -48.1302  -52.8855 O.2       1 UNK        -0.4888 
     67 H67        37.4834  -44.0847  -55.6641 H         1 UNK         0.0892 
     68 H68        38.4597  -45.3509  -54.9148 H         1 UNK         0.0892 
     69 H69        37.7553  -45.6075  -56.5124 H         1 UNK         0.0892 
     70 H70        35.9781  -46.9332  -56.4495 H         1 UNK         0.3107 
     71 H71        34.1753  -48.0519  -55.8767 H         1 UNK         0.0773 
     72 H72        32.2856  -46.9496  -54.7707 H         1 UNK         0.0680 
     73 H73        33.3183  -45.7027  -54.1279 H         1 UNK         0.0680 
     74 H74        33.2928  -43.0627  -56.7489 H         1 UNK         0.0650 
     75 H75        33.9100  -43.6308  -55.2189 H         1 UNK         0.0650 
     76 H76        32.4163  -43.7411  -53.2386 H         1 UNK         0.1397 
     77 H77        28.4576  -42.1306  -53.5705 H         1 UNK         0.1363 
     78 H78        30.8646  -42.6319  -57.0815 H         1 UNK         0.1355 
     79 H79        27.5429  -41.5169  -55.6461 H         1 UNK         0.0707 
     80 H80        28.7284  -40.8173  -56.7300 H         1 UNK         0.0707 
     81 H81        26.2169  -41.1980  -57.7462 H         1 UNK         0.1034 
     82 H82        26.3531  -42.1282  -59.2146 H         1 UNK         0.1034 
     83 H83        25.1013  -43.1338  -56.6052 H         1 UNK         0.0482 
     84 H84        23.5423  -41.4431  -56.3753 H         1 UNK         0.3460 
     85 H85        22.3115  -41.1582  -57.5773 H         1 UNK         0.3460 
     86 H86        26.0099  -44.6367  -58.8298 H         1 UNK         0.2989 
     87 H87        24.3646  -47.6256  -57.8437 H         1 UNK         0.0559 
     88 H88        24.6340  -46.2771  -60.5793 H         1 UNK         0.0848 
     89 H89        23.1535  -46.8833  -59.8595 H         1 UNK         0.0848 
     90 H90        24.4315  -48.0060  -60.2968 H         1 UNK         0.0848 
     91 H91        26.5069  -47.9511  -57.8180 H         1 UNK         0.3144 
     92 H92        29.0944  -47.5294  -59.7999 H         1 UNK         0.0727 
     93 H93        29.3477  -45.5927  -57.4383 H         1 UNK         0.0790 
     94 H94        29.6499  -45.1856  -59.1218 H         1 UNK         0.0790 
     95 H95        30.6744  -46.3557  -58.3109 H         1 UNK         0.0790 
     96 H96        28.7321  -47.8865  -56.8731 H         1 UNK         0.3215 
     97 H97        27.9555  -51.2903  -57.1666 H         1 UNK         0.0863 
     98 H98        29.9470  -51.6713  -55.6498 H         1 UNK         0.0808 
     99 H99        30.7167  -50.2433  -56.3447 H         1 UNK         0.0808 
    100 H100       30.3739  -51.6361  -57.3535 H         1 UNK         0.0808 
    101 H101       28.6436  -49.6151  -54.9331 H         1 UNK         0.3118 
    102 H102       25.5907  -47.8918  -54.6625 H         1 UNK         0.0546 
    103 H103       24.6828  -50.1122  -53.9509 H         1 UNK         0.0828 
    104 H104       25.1016  -49.1241  -52.5632 H         1 UNK         0.0828 
    105 H105       26.1603  -50.4459  -53.0593 H         1 UNK         0.0828 
    106 H106       27.5159  -48.3928  -52.6594 H         1 UNK         0.3005 
    107 H107       30.1055  -46.2479  -53.7174 H         1 UNK         0.1257 
    108 H108       28.0682  -45.8819  -51.4494 H         1 UNK         0.0775 
    109 H109       28.3325  -44.7148  -52.7132 H         1 UNK         0.0775 
    110 H110       29.3221  -42.5827  -51.4118 H         1 UNK         0.0840 
    111 H111       31.0573  -42.5607  -51.2336 H         1 UNK         0.0840 
    112 H112       29.7123  -47.7488  -51.3301 H         1 UNK         0.2987 
    113 H113       31.0393  -49.6603  -50.9821 H         1 UNK         0.0785 
    114 H114       28.6047  -50.3067  -51.4277 H         1 UNK         0.0798 
    115 H115       29.5846  -51.7140  -51.0930 H         1 UNK         0.0798 
    116 H116       29.1343  -51.3341  -52.7532 H         1 UNK         0.0798 
    117 H117       32.1398  -50.3809  -53.4180 H         1 UNK         0.3079 
    118 H118       34.0473  -53.2368  -52.3567 H         1 UNK         0.0794 
    119 H119       32.6325  -52.2646  -54.9039 H         1 UNK         0.0786 
    120 H120       32.3323  -53.7961  -54.0954 H         1 UNK         0.0786 
    121 H121       33.9031  -53.4831  -54.8131 H         1 UNK         0.0786 
    122 H122       34.6358  -51.0261  -54.1122 H         1 UNK         0.3032 
    123 H123       36.3063  -48.9970  -51.7976 H         1 UNK         0.1094 
    124 H124       37.7034  -50.8442  -53.8108 H         1 UNK         0.0794 
    125 H125       38.3607  -49.3491  -53.1419 H         1 UNK         0.0794 
    126 H126       38.0850  -50.7325  -52.0985 H         1 UNK         0.0794 
    127 H127       36.3762  -48.8718  -54.6070 H         1 UNK         0.3016 
@<TRIPOS>BOND
     1    1    2 1    
     2    1   67 1    
     3    1   68 1    
     4    1   69 1    
     5    2    3 2    
     6    2    4 am   BACKBONE|DICT|INTERRES
     7    4    5 1    
     8    4   70 1    
     9    5    6 1    
    10    5   65 1    
    11    5   71 1    
    12    6    7 1    
    13    6   72 1    
    14    6   73 1    
    15    7    8 1    
    16    8    9 1    
    17    8   74 1    
    18    8   75 1    
    19    9   10 ar   
    20    9   14 ar   
    21   10   11 ar   
    22   10   76 1    
    23   11   12 ar   
    24   11   48 1    
    25   12   13 ar   
    26   12   77 1    
    27   13   14 ar   
    28   13   15 1    
    29   14   78 1    
    30   15   16 1    
    31   15   79 1    
    32   15   80 1    
    33   16   17 1    
    34   17   18 1    
    35   17   81 1    
    36   17   82 1    
    37   18   19 1    
    38   18   22 1    
    39   18   83 1    
    40   19   20 am   BACKBONE|DICT|INTERRES
    41   19   21 2    
    42   20   84 1    
    43   20   85 1    
    44   22   23 am   BACKBONE|DICT|INTERRES
    45   22   86 1    
    46   23   24 2    
    47   23   25 1    
    48   25   26 1    
    49   25   27 1    
    50   25   87 1    
    51   26   88 1    
    52   26   89 1    
    53   26   90 1    
    54   27   28 am   BACKBONE|DICT|INTERRES
    55   27   91 1    
    56   28   29 2    
    57   28   30 1    
    58   30   31 1    
    59   30   32 1    
    60   30   92 1    
    61   31   93 1    
    62   31   94 1    
    63   31   95 1    
    64   32   33 am   BACKBONE|DICT|INTERRES
    65   32   96 1    
    66   33   34 2    
    67   33   35 1    
    68   35   36 1    
    69   35   37 1    
    70   35   97 1    
    71   36   98 1    
    72   36   99 1    
    73   36  100 1    
    74   37   38 am   BACKBONE|DICT|INTERRES
    75   37  101 1    
    76   38   39 2    
    77   38   40 1    
    78   40   41 1    
    79   40   42 1    
    80   40  102 1    
    81   41  103 1    
    82   41  104 1    
    83   41  105 1    
    84   42   43 am   BACKBONE|DICT|INTERRES
    85   42  106 1    
    86   43   44 2    
    87   43   45 1    
    88   45   46 1    
    89   45   49 1    
    90   45  107 1    
    91   46   47 1    
    92   46  108 1    
    93   46  109 1    
    94   47   48 1    
    95   48  110 1    
    96   48  111 1    
    97   49   50 am   BACKBONE|DICT|INTERRES
    98   49  112 1    
    99   50   51 2    
   100   50   52 1    
   101   52   53 1    
   102   52   54 1    
   103   52  113 1    
   104   53  114 1    
   105   53  115 1    
   106   53  116 1    
   107   54   55 am   BACKBONE|DICT|INTERRES
   108   54  117 1    
   109   55   56 2    
   110   55   57 1    
   111   57   58 1    
   112   57   59 1    
   113   57  118 1    
   114   58  119 1    
   115   58  120 1    
   116   58  121 1    
   117   59   60 am   BACKBONE|DICT|INTERRES
   118   59  122 1    
   119   60   61 2    
   120   60   62 1    
   121   62   63 1    
   122   62   64 1    
   123   62  123 1    
   124   63  124 1    
   125   63  125 1    
   126   63  126 1    
   127   64   65 am   BACKBONE|DICT|INTERRES
   128   64  127 1    
   129   65   66 2    
@<TRIPOS>SUBSTRUCTURE
     1 UNK         1 GROUP             0       ****    0 ROOT    
