@<TRIPOS>MOLECULE
3R134
127   129    1
SMALL
USER_CHARGES


@<TRIPOS>ATOM
      1 CA         38.8750  -46.7639  -53.6269 C.3       0 UNK        -0.1968 
      2 C          37.3947  -46.9681  -53.9143 C.2       0 UNK         0.4852 
      3 O          37.0099  -48.0292  -54.4060 O.2       0 UNK        -0.5359 
      4 N          36.5648  -45.9609  -53.6092 N.am      1 UNK        -0.4300 
      5 CA         35.1093  -45.9835  -53.8073 C.3       1 UNK         0.0863 
      6 C6         34.5422  -44.5594  -54.0615 C.3       11 UNK        -0.0953 
      7 S7         34.4212  -44.2011  -55.8453 S.3       11 UNK        -0.2369 
      8 C8         32.8967  -45.0966  -56.2968 C.3       11 UNK         0.0226 
      9 C9         31.6401  -44.3198  -55.9339 C.ar      11 UNK        -0.0699 
     10 C10        31.0522  -44.4728  -54.6757 C.ar      11 UNK        -0.0804 
     11 C11        29.8900  -43.7729  -54.3414 C.ar      11 UNK        -0.0871 
     12 C12        29.2995  -42.9302  -55.2883 C.ar      11 UNK        -0.1008 
     13 C13        29.8776  -42.7690  -56.5514 C.ar      11 UNK        -0.0735 
     14 C14        31.0510  -43.4610  -56.8660 C.ar      11 UNK        -0.0945 
     15 C15        29.2426  -41.8439  -57.5769 C.3       11 UNK         0.0169 
     16 S16        28.2896  -42.7950  -58.7996 S.3       11 UNK        -0.2669 
     17 C17        26.6676  -41.9616  -58.7454 C.3       11 UNK        -0.0850 
     18 CA         25.7252  -42.5120  -57.6420 C.3       10 UNK         0.0855 
     19 C          24.3936  -41.7049  -57.6215 C.2       10 UNK         0.5543 
     20 N          23.2553  -42.2871  -57.9787 N.am      10 UNK        -0.7343 
     21 O          24.3980  -40.5263  -57.2749 O.2       10 UNK        -0.5027 
     22 N          25.5735  -43.9747  -57.7280 N.am      10 UNK        -0.4495 
     23 C          25.0455  -44.7613  -56.7837 C.2       10 UNK         0.4903 
     24 O          24.5993  -44.3431  -55.7153 O.2       10 UNK        -0.4860 
     25 CA         25.0108  -46.2736  -57.0663 C.3       9 UNK         0.0227 
     26 CB         23.8704  -46.6441  -58.0347 C.3       9 UNK        -0.1964 
     27 N          26.2999  -46.8359  -57.4914 N.am      9 UNK        -0.4231 
     28 C          26.9752  -46.6386  -58.6339 C.2       9 UNK         0.5014 
     29 O          26.5744  -45.9266  -59.5562 O.2       9 UNK        -0.5270 
     30 CA         28.3347  -47.3467  -58.7734 C.3       8 UNK         0.0284 
     31 CB         29.4573  -46.4820  -58.1768 C.3       8 UNK        -0.1977 
     32 N          28.3716  -48.6798  -58.1655 N.am      8 UNK        -0.4342 
     33 C          27.6941  -49.7459  -58.6172 C.2       8 UNK         0.5039 
     34 O          26.9389  -49.7189  -59.5896 O.2       8 UNK        -0.5547 
     35 CA         27.8984  -51.0692  -57.8642 C.3       7 UNK         0.0281 
     36 CB         29.2140  -51.7428  -58.2901 C.3       7 UNK        -0.1963 
     37 N          27.9002  -50.8595  -56.4168 N.am      7 UNK        -0.4444 
     38 C          26.8070  -50.9082  -55.6433 C.2       7 UNK         0.5104 
     39 O          25.6890  -51.2203  -56.0545 O.2       7 UNK        -0.5100 
     40 CA         26.9800  -50.5400  -54.1569 C.3       6 UNK         0.0396 
     41 CB         27.1880  -51.8065  -53.3124 C.3       6 UNK        -0.1801 
     42 N          28.0783  -49.6009  -53.9066 N.am      6 UNK        -0.4747 
     43 C          28.0988  -48.3312  -54.3452 C.2       6 UNK         0.5012 
     44 O          27.1857  -47.8298  -54.9991 O.2       6 UNK        -0.5003 
     45 CA         29.3736  -47.4999  -54.0738 C.3       5 UNK         0.0782 
     46 C46        29.2690  -46.7324  -52.7325 C.3       11 UNK        -0.0868 
     47 S47        28.1359  -45.3029  -52.8243 S.3       11 UNK        -0.2515 
     48 C48        29.2908  -43.9026  -52.9483 C.3       11 UNK         0.0199 
     49 N          30.6056  -48.2945  -54.1348 N.am      5 UNK        -0.4607 
     50 C          30.9731  -49.1031  -55.1390 C.2       4 UNK         0.5031 
     51 O          30.3633  -49.1810  -56.2055 O.2       4 UNK        -0.5119 
     52 CA         32.1720  -50.0372  -54.8955 C.3       4 UNK         0.0263 
     53 CB         33.4292  -49.4826  -55.5801 C.3       4 UNK        -0.1967 
     54 N          32.4606  -50.2969  -53.4792 N.am      4 UNK        -0.4237 
     55 C          31.6259  -50.8399  -52.5806 C.2       3 UNK         0.4908 
     56 O          30.4832  -51.2083  -52.8539 O.2       3 UNK        -0.5102 
     57 CA         32.1106  -50.9372  -51.1196 C.3       3 UNK         0.0241 
     58 CB         32.8848  -52.2472  -50.8740 C.3       3 UNK        -0.1971 
     59 N          32.8555  -49.7558  -50.6481 N.am      3 UNK        -0.4139 
     60 C          34.0554  -49.3152  -51.0518 C.2       2 UNK         0.5016 
     61 O          34.7751  -49.9133  -51.8551 O.2       2 UNK        -0.5319 
     62 CA         34.5049  -47.9433  -50.5184 C.3       2 UNK         0.0286 
     63 CB         35.5723  -48.1091  -49.4251 C.3       2 UNK        -0.1963 
     64 N          35.0422  -47.1093  -51.5987 N.am      2 UNK        -0.4790 
     65 C          34.3479  -46.7144  -52.6779 C.2       1 UNK         0.5024 
     66 O          33.1396  -46.9224  -52.8131 O.2       1 UNK        -0.4888 
     67 H67        39.4508  -46.8515  -54.5478 H         1 UNK         0.0892 
     68 H68        39.2298  -47.5224  -52.9297 H         1 UNK         0.0892 
     69 H69        39.0765  -45.7842  -53.1938 H         1 UNK         0.0892 
     70 H70        36.9413  -45.1107  -53.2136 H         1 UNK         0.3107 
     71 H71        34.9148  -46.5907  -54.6924 H         1 UNK         0.0773 
     72 H72        35.1757  -43.7993  -53.6018 H         1 UNK         0.0680 
     73 H73        33.5626  -44.4051  -53.6120 H         1 UNK         0.0680 
     74 H74        32.9119  -45.2864  -57.3711 H         1 UNK         0.0650 
     75 H75        32.8801  -46.0782  -55.8211 H         1 UNK         0.0650 
     76 H76        31.4999  -45.1403  -53.9542 H         1 UNK         0.1397 
     77 H77        28.3941  -42.3936  -55.0391 H         1 UNK         0.1363 
     78 H78        31.4980  -43.3396  -57.8433 H         1 UNK         0.1355 
     79 H79        30.0164  -41.2738  -58.0930 H         1 UNK         0.0707 
     80 H80        28.6066  -41.1115  -57.0775 H         1 UNK         0.0707 
     81 H81        26.2023  -42.0833  -59.7254 H         1 UNK         0.1034 
     82 H82        26.8248  -40.8878  -58.6249 H         1 UNK         0.1034 
     83 H83        26.2041  -42.3124  -56.6815 H         1 UNK         0.0482 
     84 H84        23.2466  -43.2534  -58.2621 H         1 UNK         0.3460 
     85 H85        22.3991  -41.7559  -57.9599 H         1 UNK         0.3460 
     86 H86        25.9422  -44.4234  -58.5624 H         1 UNK         0.2989 
     87 H87        24.7921  -46.7609  -56.1147 H         1 UNK         0.0559 
     88 H88        23.8098  -47.7229  -58.1783 H         1 UNK         0.0848 
     89 H89        23.9948  -46.1832  -59.0148 H         1 UNK         0.0848 
     90 H90        22.9072  -46.3146  -57.6431 H         1 UNK         0.0848 
     91 H91        26.7573  -47.3828  -56.7647 H         1 UNK         0.3144 
     92 H92        28.5345  -47.4683  -59.8400 H         1 UNK         0.0727 
     93 H93        30.4269  -46.9755  -58.2467 H         1 UNK         0.0790 
     94 H94        29.2746  -46.2455  -57.1290 H         1 UNK         0.0790 
     95 H95        29.5391  -45.5343  -58.7095 H         1 UNK         0.0790 
     96 H96        29.0247  -48.8135  -57.3955 H         1 UNK         0.3215 
     97 H97        27.0790  -51.7389  -58.1356 H         1 UNK         0.0863 
     98 H98        29.3440  -52.7047  -57.7942 H         1 UNK         0.0808 
     99 H99        30.0840  -51.1273  -58.0591 H         1 UNK         0.0808 
    100 H100       29.2241  -51.9289  -59.3649 H         1 UNK         0.0808 
    101 H101       28.7698  -50.5438  -56.0050 H         1 UNK         0.3118 
    102 H102       26.0547  -50.0623  -53.8280 H         1 UNK         0.0546 
    103 H103       26.3535  -52.4983  -53.4347 H         1 UNK         0.0828 
    104 H104       27.2599  -51.5703  -52.2507 H         1 UNK         0.0828 
    105 H105       28.0959  -52.3383  -53.5997 H         1 UNK         0.0828 
    106 H106       28.8904  -49.9713  -53.4225 H         1 UNK         0.3005 
    107 H107       29.4471  -46.7714  -54.8819 H         1 UNK         0.1257 
    108 H108       30.2511  -46.3769  -52.4184 H         1 UNK         0.0775 
    109 H109       28.9350  -47.3927  -51.9296 H         1 UNK         0.0775 
    110 H110       28.7531  -42.9882  -52.6929 H         1 UNK         0.0840 
    111 H111       30.0797  -44.0013  -52.2009 H         1 UNK         0.0840 
    112 H112       31.2098  -48.2503  -53.3255 H         1 UNK         0.2987 
    113 H113       31.9261  -50.9960  -55.3560 H         1 UNK         0.0785 
    114 H114       33.7364  -48.5345  -55.1420 H         1 UNK         0.0798 
    115 H115       33.2539  -49.3105  -56.6431 H         1 UNK         0.0798 
    116 H116       34.2668  -50.1756  -55.4974 H         1 UNK         0.0798 
    117 H117       33.3882  -50.0470  -53.1442 H         1 UNK         0.3079 
    118 H118       31.2113  -50.9760  -50.5026 H         1 UNK         0.0794 
    119 H119       33.7840  -52.3162  -51.4865 H         1 UNK         0.0786 
    120 H120       32.2658  -53.1126  -51.1144 H         1 UNK         0.0786 
    121 H121       33.1822  -52.3420  -49.8296 H         1 UNK         0.0786 
    122 H122       32.3444  -49.1753  -49.9967 H         1 UNK         0.3032 
    123 H123       33.6433  -47.4239  -50.0927 H         1 UNK         0.1094 
    124 H124       36.4645  -48.6090  -49.8050 H         1 UNK         0.0794 
    125 H125       35.8752  -47.1454  -49.0150 H         1 UNK         0.0794 
    126 H126       35.1921  -48.7077  -48.5960 H         1 UNK         0.0794 
    127 H127       36.0353  -46.9316  -51.5838 H         1 UNK         0.3016 
@<TRIPOS>BOND
     1    1    2 1    
     2    1   67 1    
     3    1   68 1    
     4    1   69 1    
     5    2    3 2    
     6    2    4 am   BACKBONE|DICT|INTERRES
     7    4    5 1    
     8    4   70 1    
     9    5    6 1    
    10    5   65 1    
    11    5   71 1    
    12    6    7 1    
    13    6   72 1    
    14    6   73 1    
    15    7    8 1    
    16    8    9 1    
    17    8   74 1    
    18    8   75 1    
    19    9   10 ar   
    20    9   14 ar   
    21   10   11 ar   
    22   10   76 1    
    23   11   12 ar   
    24   11   48 1    
    25   12   13 ar   
    26   12   77 1    
    27   13   14 ar   
    28   13   15 1    
    29   14   78 1    
    30   15   16 1    
    31   15   79 1    
    32   15   80 1    
    33   16   17 1    
    34   17   18 1    
    35   17   81 1    
    36   17   82 1    
    37   18   19 1    
    38   18   22 1    
    39   18   83 1    
    40   19   20 am   BACKBONE|DICT|INTERRES
    41   19   21 2    
    42   20   84 1    
    43   20   85 1    
    44   22   23 am   BACKBONE|DICT|INTERRES
    45   22   86 1    
    46   23   24 2    
    47   23   25 1    
    48   25   26 1    
    49   25   27 1    
    50   25   87 1    
    51   26   88 1    
    52   26   89 1    
    53   26   90 1    
    54   27   28 am   BACKBONE|DICT|INTERRES
    55   27   91 1    
    56   28   29 2    
    57   28   30 1    
    58   30   31 1    
    59   30   32 1    
    60   30   92 1    
    61   31   93 1    
    62   31   94 1    
    63   31   95 1    
    64   32   33 am   BACKBONE|DICT|INTERRES
    65   32   96 1    
    66   33   34 2    
    67   33   35 1    
    68   35   36 1    
    69   35   37 1    
    70   35   97 1    
    71   36   98 1    
    72   36   99 1    
    73   36  100 1    
    74   37   38 am   BACKBONE|DICT|INTERRES
    75   37  101 1    
    76   38   39 2    
    77   38   40 1    
    78   40   41 1    
    79   40   42 1    
    80   40  102 1    
    81   41  103 1    
    82   41  104 1    
    83   41  105 1    
    84   42   43 am   BACKBONE|DICT|INTERRES
    85   42  106 1    
    86   43   44 2    
    87   43   45 1    
    88   45   46 1    
    89   45   49 1    
    90   45  107 1    
    91   46   47 1    
    92   46  108 1    
    93   46  109 1    
    94   47   48 1    
    95   48  110 1    
    96   48  111 1    
    97   49   50 am   BACKBONE|DICT|INTERRES
    98   49  112 1    
    99   50   51 2    
   100   50   52 1    
   101   52   53 1    
   102   52   54 1    
   103   52  113 1    
   104   53  114 1    
   105   53  115 1    
   106   53  116 1    
   107   54   55 am   BACKBONE|DICT|INTERRES
   108   54  117 1    
   109   55   56 2    
   110   55   57 1    
   111   57   58 1    
   112   57   59 1    
   113   57  118 1    
   114   58  119 1    
   115   58  120 1    
   116   58  121 1    
   117   59   60 am   BACKBONE|DICT|INTERRES
   118   59  122 1    
   119   60   61 2    
   120   60   62 1    
   121   62   63 1    
   122   62   64 1    
   123   62  123 1    
   124   63  124 1    
   125   63  125 1    
   126   63  126 1    
   127   64   65 am   BACKBONE|DICT|INTERRES
   128   64  127 1    
   129   65   66 2    
@<TRIPOS>SUBSTRUCTURE
     1 UNK         1 GROUP             0       ****    0 ROOT    
