@<TRIPOS>MOLECULE
3R134
127   129    1
SMALL
USER_CHARGES


@<TRIPOS>ATOM
      1 CA         33.5609  -42.1129  -53.7922 C.3       0 UNK        -0.1968 
      2 C          34.4427  -43.2859  -54.1923 C.2       0 UNK         0.4852 
      3 O          35.6668  -43.2054  -54.0734 O.2       0 UNK        -0.5359 
      4 N          33.8242  -44.3681  -54.6791 N.am      1 UNK        -0.4300 
      5 CA         34.4829  -45.6151  -55.0835 C.3       1 UNK         0.0863 
      6 C6         33.5807  -46.5164  -55.9715 C.3       11 UNK        -0.0953 
      7 S7         32.7203  -45.6108  -57.3041 S.3       11 UNK        -0.2369 
      8 C8         30.9849  -45.7056  -56.7610 C.3       11 UNK         0.0226 
      9 C9         30.6932  -44.8316  -55.5476 C.ar      11 UNK        -0.0699 
     10 C10        30.8543  -45.3494  -54.2603 C.ar      11 UNK        -0.0804 
     11 C11        30.5344  -44.5909  -53.1297 C.ar      11 UNK        -0.0871 
     12 C12        30.0709  -43.2850  -53.3054 C.ar      11 UNK        -0.1008 
     13 C13        29.9068  -42.7471  -54.5854 C.ar      11 UNK        -0.0735 
     14 C14        30.2225  -43.5242  -55.7053 C.ar      11 UNK        -0.0945 
     15 C15        29.3873  -41.3251  -54.7420 C.3       11 UNK         0.0169 
     16 S16        27.6271  -41.1929  -54.2828 S.3       11 UNK        -0.2669 
     17 C17        26.7997  -41.8824  -55.7558 C.3       11 UNK        -0.0850 
     18 CA         26.5671  -43.4179  -55.6839 C.3       10 UNK         0.0855 
     19 C          25.2624  -43.7996  -54.9234 C.2       10 UNK         0.5543 
     20 N          24.3097  -44.4821  -55.5477 N.am      10 UNK        -0.7343 
     21 O          25.1143  -43.4870  -53.7454 O.2       10 UNK        -0.5027 
     22 N          26.6739  -44.0061  -57.0294 N.am      10 UNK        -0.4495 
     23 C          27.2203  -45.1950  -57.2976 C.2       10 UNK         0.4903 
     24 O          27.6654  -45.9586  -56.4364 O.2       10 UNK        -0.4860 
     25 CA         27.2973  -45.5916  -58.7787 C.3       9 UNK         0.0227 
     26 CB         28.0806  -44.5454  -59.6051 C.3       9 UNK        -0.1964 
     27 N          27.9342  -46.9032  -58.8514 N.am      9 UNK        -0.4231 
     28 C          28.0740  -47.6820  -59.9299 C.2       9 UNK         0.5014 
     29 O          27.6585  -47.3965  -61.0535 O.2       9 UNK        -0.5270 
     30 CA         28.7936  -49.0183  -59.7036 C.3       8 UNK         0.0284 
     31 CB         30.3046  -48.7976  -59.5167 C.3       8 UNK        -0.1977 
     32 N          28.2403  -49.7171  -58.5420 N.am      8 UNK        -0.4342 
     33 C          27.1517  -50.4990  -58.5867 C.2       8 UNK         0.5039 
     34 O          26.5540  -50.7868  -59.6244 O.2       8 UNK        -0.5547 
     35 CA         26.6179  -51.0217  -57.2475 C.3       7 UNK         0.0281 
     36 CB         27.5589  -52.0749  -56.6385 C.3       7 UNK        -0.1963 
     37 N          26.4402  -49.9068  -56.3174 N.am      7 UNK        -0.4444 
     38 C          25.2605  -49.3616  -55.9898 C.2       7 UNK         0.5104 
     39 O          24.1772  -49.8000  -56.3793 O.2       7 UNK        -0.5100 
     40 CA         25.2779  -48.0909  -55.1148 C.3       6 UNK         0.0396 
     41 CB         24.2066  -48.1175  -54.0050 C.3       6 UNK        -0.1801 
     42 N          26.6021  -47.7452  -54.5851 N.am      6 UNK        -0.4747 
     43 C          27.3152  -48.3915  -53.6529 C.2       6 UNK         0.5012 
     44 O          26.9170  -49.3778  -53.0307 O.2       6 UNK        -0.5003 
     45 CA         28.7454  -47.8749  -53.4191 C.3       5 UNK         0.0782 
     46 C46        28.9385  -47.3726  -51.9630 C.3       11 UNK        -0.0868 
     47 S47        30.6711  -46.9534  -51.5525 S.3       11 UNK        -0.2515 
     48 C48        30.6963  -45.1325  -51.7084 C.3       11 UNK         0.0199 
     49 N          29.7231  -48.8986  -53.7929 N.am      5 UNK        -0.4607 
     50 C          29.9391  -49.3766  -55.0213 C.2       4 UNK         0.5031 
     51 O          29.2989  -49.0066  -56.0106 O.2       4 UNK        -0.5119 
     52 CA         31.0392  -50.4527  -55.1800 C.3       4 UNK         0.0263 
     53 CB         31.5212  -50.5748  -56.6370 C.3       4 UNK        -0.1967 
     54 N          32.2197  -50.2912  -54.3161 N.am      4 UNK        -0.4237 
     55 C          32.2650  -50.5341  -52.9969 C.2       3 UNK         0.4908 
     56 O          31.2682  -50.7940  -52.3230 O.2       3 UNK        -0.5102 
     57 CA         33.6348  -50.5124  -52.3048 C.3       3 UNK         0.0241 
     58 CB         34.2361  -51.9328  -52.2868 C.3       3 UNK        -0.1971 
     59 N          34.5787  -49.5585  -52.8994 N.am      3 UNK        -0.4139 
     60 C          35.6750  -49.1027  -52.2768 C.2       2 UNK         0.5016 
     61 O          35.9994  -49.4310  -51.1343 O.2       2 UNK        -0.5319 
     62 CA         36.5844  -48.1269  -53.0482 C.3       2 UNK         0.0286 
     63 CB         37.7648  -48.8854  -53.6777 C.3       2 UNK        -0.1963 
     64 N          35.9144  -47.3379  -54.0888 N.am      2 UNK        -0.4790 
     65 C          34.9851  -46.4015  -53.8532 C.2       1 UNK         0.5024 
     66 O          34.5181  -46.1757  -52.7342 O.2       1 UNK        -0.4888 
     67 H67        33.1952  -42.2461  -52.7743 H         1 UNK         0.0892 
     68 H68        34.1199  -41.1786  -53.8367 H         1 UNK         0.0892 
     69 H69        32.7037  -42.0210  -54.4582 H         1 UNK         0.0892 
     70 H70        32.8147  -44.3753  -54.7420 H         1 UNK         0.3107 
     71 H71        35.3580  -45.3352  -55.6743 H         1 UNK         0.0773 
     72 H72        34.1909  -47.2823  -56.4530 H         1 UNK         0.0680 
     73 H73        32.8534  -47.0685  -55.3773 H         1 UNK         0.0680 
     74 H74        30.7231  -46.7428  -56.5504 H         1 UNK         0.0650 
     75 H75        30.3497  -45.4036  -57.5919 H         1 UNK         0.0650 
     76 H76        31.2136  -46.3597  -54.1406 H         1 UNK         0.1397 
     77 H77        29.8243  -42.6815  -52.4421 H         1 UNK         0.1363 
     78 H78        30.0870  -43.1191  -56.6987 H         1 UNK         0.1355 
     79 H79        29.5375  -40.9594  -55.7589 H         1 UNK         0.0707 
     80 H80        29.9668  -40.6650  -54.0949 H         1 UNK         0.0707 
     81 H81        25.8588  -41.3514  -55.9127 H         1 UNK         0.1034 
     82 H82        27.4149  -41.6288  -56.6206 H         1 UNK         0.1034 
     83 H83        27.3719  -43.8438  -55.0827 H         1 UNK         0.0482 
     84 H84        23.4693  -44.7238  -55.0474 H         1 UNK         0.3460 
     85 H85        24.4139  -44.7380  -56.5156 H         1 UNK         0.3460 
     86 H86        26.2995  -43.4541  -57.7871 H         1 UNK         0.2989 
     87 H87        26.2790  -45.6782  -59.1620 H         1 UNK         0.0559 
     88 H88        27.6041  -43.5656  -59.5675 H         1 UNK         0.0848 
     89 H89        29.1017  -44.4223  -59.2459 H         1 UNK         0.0848 
     90 H90        28.1339  -44.8199  -60.6582 H         1 UNK         0.0848 
     91 H91        28.2698  -47.2288  -57.9519 H         1 UNK         0.3144 
     92 H92        28.6544  -49.6312  -60.5970 H         1 UNK         0.0727 
     93 H93        30.8397  -49.7463  -59.4860 H         1 UNK         0.0790 
     94 H94        30.5293  -48.2531  -58.5992 H         1 UNK         0.0790 
     95 H95        30.7205  -48.2234  -60.3458 H         1 UNK         0.0790 
     96 H96        28.6665  -49.5147  -57.6396 H         1 UNK         0.3215 
     97 H97        25.6602  -51.5102  -57.4405 H         1 UNK         0.0863 
     98 H98        27.6814  -52.9220  -57.3147 H         1 UNK         0.0808 
     99 H99        28.5511  -51.6757  -56.4368 H         1 UNK         0.0808 
    100 H100       27.1599  -52.4637  -55.7015 H         1 UNK         0.0808 
    101 H101       27.2822  -49.4595  -55.9737 H         1 UNK         0.3118 
    102 H102       25.0199  -47.2744  -55.7899 H         1 UNK         0.0546 
    103 H103       23.2061  -48.1987  -54.4312 H         1 UNK         0.0828 
    104 H104       24.2297  -47.2042  -53.4105 H         1 UNK         0.0828 
    105 H105       24.3375  -48.9637  -53.3305 H         1 UNK         0.0828 
    106 H106       27.0608  -46.9907  -55.0963 H         1 UNK         0.3005 
    107 H107       28.8918  -47.0294  -54.0905 H         1 UNK         0.1257 
    108 H108       28.6226  -48.1391  -51.2525 H         1 UNK         0.0775 
    109 H109       28.3023  -46.5060  -51.7738 H         1 UNK         0.0775 
    110 H110       29.9227  -44.7187  -51.0595 H         1 UNK         0.0840 
    111 H111       31.6495  -44.7734  -51.3182 H         1 UNK         0.0840 
    112 H112       30.2400  -49.3221  -53.0289 H         1 UNK         0.2987 
    113 H113       30.5690  -51.4014  -54.9129 H         1 UNK         0.0785 
    114 H114       30.6992  -50.8319  -57.3048 H         1 UNK         0.0798 
    115 H115       32.2687  -51.3608  -56.7458 H         1 UNK         0.0798 
    116 H116       31.9587  -49.6419  -56.9949 H         1 UNK         0.0798 
    117 H117       33.0857  -50.1263  -54.8039 H         1 UNK         0.3079 
    118 H118       33.4505  -50.2036  -51.2731 H         1 UNK         0.0794 
    119 H119       33.5269  -52.6543  -51.8782 H         1 UNK         0.0786 
    120 H120       35.1317  -51.9834  -51.6678 H         1 UNK         0.0786 
    121 H121       34.5035  -52.2689  -53.2893 H         1 UNK         0.0786 
    122 H122       34.3658  -49.1891  -53.8126 H         1 UNK         0.3032 
    123 H123       36.9863  -47.4258  -52.3127 H         1 UNK         0.1094 
    124 H124       38.4809  -48.2009  -54.1328 H         1 UNK         0.0794 
    125 H125       38.3058  -49.4608  -52.9248 H         1 UNK         0.0794 
    126 H126       37.4325  -49.5859  -54.4450 H         1 UNK         0.0794 
    127 H127       36.2450  -47.4697  -55.0347 H         1 UNK         0.3016 
@<TRIPOS>BOND
     1    1    2 1    
     2    1   67 1    
     3    1   68 1    
     4    1   69 1    
     5    2    3 2    
     6    2    4 am   BACKBONE|DICT|INTERRES
     7    4    5 1    
     8    4   70 1    
     9    5    6 1    
    10    5   65 1    
    11    5   71 1    
    12    6    7 1    
    13    6   72 1    
    14    6   73 1    
    15    7    8 1    
    16    8    9 1    
    17    8   74 1    
    18    8   75 1    
    19    9   10 ar   
    20    9   14 ar   
    21   10   11 ar   
    22   10   76 1    
    23   11   12 ar   
    24   11   48 1    
    25   12   13 ar   
    26   12   77 1    
    27   13   14 ar   
    28   13   15 1    
    29   14   78 1    
    30   15   16 1    
    31   15   79 1    
    32   15   80 1    
    33   16   17 1    
    34   17   18 1    
    35   17   81 1    
    36   17   82 1    
    37   18   19 1    
    38   18   22 1    
    39   18   83 1    
    40   19   20 am   BACKBONE|DICT|INTERRES
    41   19   21 2    
    42   20   84 1    
    43   20   85 1    
    44   22   23 am   BACKBONE|DICT|INTERRES
    45   22   86 1    
    46   23   24 2    
    47   23   25 1    
    48   25   26 1    
    49   25   27 1    
    50   25   87 1    
    51   26   88 1    
    52   26   89 1    
    53   26   90 1    
    54   27   28 am   BACKBONE|DICT|INTERRES
    55   27   91 1    
    56   28   29 2    
    57   28   30 1    
    58   30   31 1    
    59   30   32 1    
    60   30   92 1    
    61   31   93 1    
    62   31   94 1    
    63   31   95 1    
    64   32   33 am   BACKBONE|DICT|INTERRES
    65   32   96 1    
    66   33   34 2    
    67   33   35 1    
    68   35   36 1    
    69   35   37 1    
    70   35   97 1    
    71   36   98 1    
    72   36   99 1    
    73   36  100 1    
    74   37   38 am   BACKBONE|DICT|INTERRES
    75   37  101 1    
    76   38   39 2    
    77   38   40 1    
    78   40   41 1    
    79   40   42 1    
    80   40  102 1    
    81   41  103 1    
    82   41  104 1    
    83   41  105 1    
    84   42   43 am   BACKBONE|DICT|INTERRES
    85   42  106 1    
    86   43   44 2    
    87   43   45 1    
    88   45   46 1    
    89   45   49 1    
    90   45  107 1    
    91   46   47 1    
    92   46  108 1    
    93   46  109 1    
    94   47   48 1    
    95   48  110 1    
    96   48  111 1    
    97   49   50 am   BACKBONE|DICT|INTERRES
    98   49  112 1    
    99   50   51 2    
   100   50   52 1    
   101   52   53 1    
   102   52   54 1    
   103   52  113 1    
   104   53  114 1    
   105   53  115 1    
   106   53  116 1    
   107   54   55 am   BACKBONE|DICT|INTERRES
   108   54  117 1    
   109   55   56 2    
   110   55   57 1    
   111   57   58 1    
   112   57   59 1    
   113   57  118 1    
   114   58  119 1    
   115   58  120 1    
   116   58  121 1    
   117   59   60 am   BACKBONE|DICT|INTERRES
   118   59  122 1    
   119   60   61 2    
   120   60   62 1    
   121   62   63 1    
   122   62   64 1    
   123   62  123 1    
   124   63  124 1    
   125   63  125 1    
   126   63  126 1    
   127   64   65 am   BACKBONE|DICT|INTERRES
   128   64  127 1    
   129   65   66 2    
@<TRIPOS>SUBSTRUCTURE
     1 UNK         1 GROUP             0       ****    0 ROOT    
