@<TRIPOS>MOLECULE
3R134
127   129    1
SMALL
USER_CHARGES


@<TRIPOS>ATOM
      1 CA         37.2371  -46.6563  -55.9377 C.3       0 UNK        -0.1968 
      2 C          35.9318  -46.6522  -55.1580 C.2       0 UNK         0.4852 
      3 O          35.1896  -47.6344  -55.2098 O.2       0 UNK        -0.5359 
      4 N          35.6539  -45.5637  -54.4246 N.am      1 UNK        -0.4300 
      5 CA         34.4327  -45.3318  -53.6371 C.3       1 UNK         0.0863 
      6 C6         34.4687  -43.9683  -52.9079 C.3       11 UNK        -0.0953 
      7 S7         34.3583  -42.5889  -54.0965 S.3       11 UNK        -0.2369 
      8 C8         32.7368  -41.8592  -53.6927 C.3       11 UNK         0.0226 
      9 C9         31.5806  -42.8316  -53.8934 C.ar      11 UNK        -0.0699 
     10 C10        30.9477  -43.4086  -52.7891 C.ar      11 UNK        -0.0804 
     11 C11        29.8750  -44.2896  -52.9579 C.ar      11 UNK        -0.0871 
     12 C12        29.4252  -44.5842  -54.2489 C.ar      11 UNK        -0.1008 
     13 C13        30.0430  -44.0049  -55.3620 C.ar      11 UNK        -0.0735 
     14 C14        31.1222  -43.1335  -55.1784 C.ar      11 UNK        -0.0945 
     15 C15        29.5508  -44.3115  -56.7671 C.3       11 UNK         0.0169 
     16 S16        28.3359  -43.0720  -57.3133 S.3       11 UNK        -0.2669 
     17 C17        28.5686  -43.0994  -59.1253 C.3       11 UNK        -0.0850 
     18 CA         27.2412  -43.2567  -59.9111 C.3       10 UNK         0.0855 
     19 C          27.4905  -43.0707  -61.4380 C.2       10 UNK         0.5543 
     20 N          27.3334  -44.0935  -62.2698 N.am      10 UNK        -0.7343 
     21 O          27.8329  -41.9740  -61.8731 O.2       10 UNK        -0.5027 
     22 N          26.5329  -44.4935  -59.5397 N.am      10 UNK        -0.4495 
     23 C          25.2518  -44.7621  -59.8250 C.2       10 UNK         0.4903 
     24 O          24.5022  -43.9902  -60.4235 O.2       10 UNK        -0.4860 
     25 CA         24.7128  -46.1293  -59.3729 C.3       9 UNK         0.0227 
     26 CB         24.8640  -47.1649  -60.4994 C.3       9 UNK        -0.1964 
     27 N          25.3652  -46.6356  -58.1628 N.am      9 UNK        -0.4231 
     28 C          25.1333  -46.1859  -56.9212 C.2       9 UNK         0.5014 
     29 O          24.3558  -45.2631  -56.6706 O.2       9 UNK        -0.5270 
     30 CA         25.9007  -46.8673  -55.7663 C.3       8 UNK         0.0284 
     31 CB         25.0687  -46.9389  -54.4691 C.3       8 UNK        -0.1977 
     32 N          26.4666  -48.1858  -56.0900 N.am      8 UNK        -0.4342 
     33 C          25.8152  -49.2946  -56.4788 C.2       8 UNK         0.5039 
     34 O          24.5961  -49.3669  -56.6318 O.2       8 UNK        -0.5547 
     35 CA         26.6826  -50.5296  -56.7571 C.3       7 UNK         0.0281 
     36 CB         27.5494  -50.3256  -58.0125 C.3       7 UNK        -0.1963 
     37 N          27.5392  -50.8177  -55.6086 N.am      7 UNK        -0.4444 
     38 C          27.2362  -51.6813  -54.6295 C.2       7 UNK         0.5104 
     39 O          26.2425  -52.4086  -54.6360 O.2       7 UNK        -0.5100 
     40 CA         28.2006  -51.7426  -53.4295 C.3       6 UNK         0.0396 
     41 CB         29.2093  -52.8874  -53.6096 C.3       6 UNK        -0.1801 
     42 N          28.9149  -50.4800  -53.2102 N.am      6 UNK        -0.4747 
     43 C          28.3227  -49.3585  -52.7652 C.2       6 UNK         0.5012 
     44 O          27.1451  -49.3193  -52.4078 O.2       6 UNK        -0.5003 
     45 CA         29.1508  -48.0538  -52.7187 C.3       5 UNK         0.0782 
     46 C46        29.4944  -47.7228  -51.2431 C.3       11 UNK        -0.0868 
     47 S47        30.2926  -46.1141  -50.9282 S.3       11 UNK        -0.2515 
     48 C48        29.2040  -44.8958  -51.7333 C.3       11 UNK         0.0199 
     49 N          30.3222  -48.0629  -53.6099 N.am      5 UNK        -0.4607 
     50 C          30.2491  -48.1944  -54.9442 C.2       4 UNK         0.5031 
     51 O          29.1832  -48.2567  -55.5586 O.2       4 UNK        -0.5119 
     52 CA         31.5551  -48.3431  -55.7415 C.3       4 UNK         0.0263 
     53 CB         31.9777  -46.9920  -56.3323 C.3       4 UNK        -0.1967 
     54 N          32.6709  -48.9418  -55.0018 N.am      4 UNK        -0.4237 
     55 C          32.6664  -50.1714  -54.4632 C.2       3 UNK         0.4908 
     56 O          31.6766  -50.9025  -54.4403 O.2       3 UNK        -0.5102 
     57 CA         33.9798  -50.6709  -53.8443 C.3       3 UNK         0.0241 
     58 CB         34.9478  -51.1514  -54.9381 C.3       3 UNK        -0.1971 
     59 N          34.6153  -49.6193  -53.0528 N.am      3 UNK        -0.4139 
     60 C          34.4412  -49.4570  -51.7338 C.2       2 UNK         0.5016 
     61 O          33.8319  -50.2532  -51.0182 O.2       2 UNK        -0.5319 
     62 CA         35.0294  -48.1823  -51.0963 C.3       2 UNK         0.0286 
     63 CB         36.4108  -48.4737  -50.4881 C.3       2 UNK        -0.1963 
     64 N          35.1380  -47.0408  -52.0124 N.am      2 UNK        -0.4790 
     65 C          34.1058  -46.4730  -52.6548 C.2       1 UNK         0.5024 
     66 O          32.9443  -46.8608  -52.5505 O.2       1 UNK        -0.4888 
     67 H67        37.8618  -47.4893  -55.6168 H         1 UNK         0.0892 
     68 H68        37.0350  -46.7722  -57.0021 H         1 UNK         0.0892 
     69 H69        37.8005  -45.7341  -55.7970 H         1 UNK         0.0892 
     70 H70        36.3045  -44.7910  -54.4348 H         1 UNK         0.3107 
     71 H71        33.6076  -45.3012  -54.3478 H         1 UNK         0.0773 
     72 H72        35.3891  -43.8623  -52.3311 H         1 UNK         0.0680 
     73 H73        33.6553  -43.8836  -52.1858 H         1 UNK         0.0680 
     74 H74        32.5816  -40.9825  -54.3232 H         1 UNK         0.0650 
     75 H75        32.7586  -41.4926  -52.6652 H         1 UNK         0.0650 
     76 H76        31.2913  -43.1767  -51.7902 H         1 UNK         0.1397 
     77 H77        28.5913  -45.2559  -54.3905 H         1 UNK         0.1363 
     78 H78        31.6016  -42.6821  -56.0364 H         1 UNK         0.1355 
     79 H79        30.4044  -44.3245  -57.4463 H         1 UNK         0.0707 
     80 H80        29.1020  -45.3053  -56.8110 H         1 UNK         0.0707 
     81 H81        29.0639  -42.1651  -59.3978 H         1 UNK         0.1034 
     82 H82        29.2608  -43.8953  -59.4055 H         1 UNK         0.1034 
     83 H83        26.5935  -42.4278  -59.6185 H         1 UNK         0.0482 
     84 H84        27.0499  -44.9949  -61.9226 H         1 UNK         0.3460 
     85 H85        27.4952  -43.9585  -63.2554 H         1 UNK         0.3460 
     86 H86        27.0701  -45.1796  -59.0330 H         1 UNK         0.2989 
     87 H87        23.6474  -46.0116  -59.1633 H         1 UNK         0.0559 
     88 H88        25.9102  -47.3478  -60.7478 H         1 UNK         0.0848 
     89 H89        24.3674  -46.8259  -61.4098 H         1 UNK         0.0848 
     90 H90        24.4128  -48.1184  -60.2239 H         1 UNK         0.0848 
     91 H91        26.0047  -47.4081  -58.2728 H         1 UNK         0.3144 
     92 H92        26.7566  -46.2214  -55.5689 H         1 UNK         0.0727 
     93 H93        24.7607  -45.9453  -54.1416 H         1 UNK         0.0790 
     94 H94        25.6413  -47.3816  -53.6545 H         1 UNK         0.0790 
     95 H95        24.1641  -47.5327  -54.6035 H         1 UNK         0.0790 
     96 H96        27.4814  -48.2440  -55.9905 H         1 UNK         0.3215 
     97 H97        26.0153  -51.3736  -56.9465 H         1 UNK         0.0863 
     98 H98        28.1125  -51.2282  -58.2501 H         1 UNK         0.0808 
     99 H99        28.2652  -49.5113  -57.8937 H         1 UNK         0.0808 
    100 H100       26.9304  -50.0948  -58.8806 H         1 UNK         0.0808 
    101 H101       28.3550  -50.2296  -55.4901 H         1 UNK         0.3118 
    102 H102       27.6078  -51.9553  -52.5373 H         1 UNK         0.0546 
    103 H103       29.7935  -52.7718  -54.5231 H         1 UNK         0.0828 
    104 H104       28.6977  -53.8486  -53.6731 H         1 UNK         0.0828 
    105 H105       29.9038  -52.9439  -52.7713 H         1 UNK         0.0828 
    106 H106       29.8891  -50.4512  -53.4973 H         1 UNK         0.3005 
    107 H107       28.4789  -47.2844  -53.0984 H         1 UNK         0.1257 
    108 H108       30.1509  -48.4938  -50.8350 H         1 UNK         0.0775 
    109 H109       28.5919  -47.7451  -50.6282 H         1 UNK         0.0775 
    110 H110       28.2359  -45.3326  -51.9786 H         1 UNK         0.0840 
    111 H111       28.9928  -44.0992  -51.0184 H         1 UNK         0.0840 
    112 H112       31.2301  -47.9329  -53.1752 H         1 UNK         0.2987 
    113 H113       31.3436  -49.0170  -56.5742 H         1 UNK         0.0785 
    114 H114       32.9501  -47.0473  -56.8219 H         1 UNK         0.0798 
    115 H115       32.0219  -46.2186  -55.5674 H         1 UNK         0.0798 
    116 H116       31.2585  -46.6638  -57.0823 H         1 UNK         0.0798 
    117 H117       33.5440  -48.4177  -55.0016 H         1 UNK         0.3079 
    118 H118       33.7450  -51.5268  -53.2075 H         1 UNK         0.0794 
    119 H119       34.4961  -51.9438  -55.5365 H         1 UNK         0.0786 
    120 H120       35.8634  -51.5545  -54.5051 H         1 UNK         0.0786 
    121 H121       35.2269  -50.3467  -55.6195 H         1 UNK         0.0786 
    122 H122       35.0894  -48.8890  -53.5729 H         1 UNK         0.3032 
    123 H123       34.3523  -47.8901  -50.2902 H         1 UNK         0.1094 
    124 H124       36.7959  -47.6113  -49.9437 H         1 UNK         0.0794 
    125 H125       36.3587  -49.3030  -49.7810 H         1 UNK         0.0794 
    126 H126       37.1400  -48.7434  -51.2531 H         1 UNK         0.0794 
    127 H127       36.0644  -46.6740  -52.1781 H         1 UNK         0.3016 
@<TRIPOS>BOND
     1    1    2 1    
     2    1   67 1    
     3    1   68 1    
     4    1   69 1    
     5    2    3 2    
     6    2    4 am   BACKBONE|DICT|INTERRES
     7    4    5 1    
     8    4   70 1    
     9    5    6 1    
    10    5   65 1    
    11    5   71 1    
    12    6    7 1    
    13    6   72 1    
    14    6   73 1    
    15    7    8 1    
    16    8    9 1    
    17    8   74 1    
    18    8   75 1    
    19    9   10 ar   
    20    9   14 ar   
    21   10   11 ar   
    22   10   76 1    
    23   11   12 ar   
    24   11   48 1    
    25   12   13 ar   
    26   12   77 1    
    27   13   14 ar   
    28   13   15 1    
    29   14   78 1    
    30   15   16 1    
    31   15   79 1    
    32   15   80 1    
    33   16   17 1    
    34   17   18 1    
    35   17   81 1    
    36   17   82 1    
    37   18   19 1    
    38   18   22 1    
    39   18   83 1    
    40   19   20 am   BACKBONE|DICT|INTERRES
    41   19   21 2    
    42   20   84 1    
    43   20   85 1    
    44   22   23 am   BACKBONE|DICT|INTERRES
    45   22   86 1    
    46   23   24 2    
    47   23   25 1    
    48   25   26 1    
    49   25   27 1    
    50   25   87 1    
    51   26   88 1    
    52   26   89 1    
    53   26   90 1    
    54   27   28 am   BACKBONE|DICT|INTERRES
    55   27   91 1    
    56   28   29 2    
    57   28   30 1    
    58   30   31 1    
    59   30   32 1    
    60   30   92 1    
    61   31   93 1    
    62   31   94 1    
    63   31   95 1    
    64   32   33 am   BACKBONE|DICT|INTERRES
    65   32   96 1    
    66   33   34 2    
    67   33   35 1    
    68   35   36 1    
    69   35   37 1    
    70   35   97 1    
    71   36   98 1    
    72   36   99 1    
    73   36  100 1    
    74   37   38 am   BACKBONE|DICT|INTERRES
    75   37  101 1    
    76   38   39 2    
    77   38   40 1    
    78   40   41 1    
    79   40   42 1    
    80   40  102 1    
    81   41  103 1    
    82   41  104 1    
    83   41  105 1    
    84   42   43 am   BACKBONE|DICT|INTERRES
    85   42  106 1    
    86   43   44 2    
    87   43   45 1    
    88   45   46 1    
    89   45   49 1    
    90   45  107 1    
    91   46   47 1    
    92   46  108 1    
    93   46  109 1    
    94   47   48 1    
    95   48  110 1    
    96   48  111 1    
    97   49   50 am   BACKBONE|DICT|INTERRES
    98   49  112 1    
    99   50   51 2    
   100   50   52 1    
   101   52   53 1    
   102   52   54 1    
   103   52  113 1    
   104   53  114 1    
   105   53  115 1    
   106   53  116 1    
   107   54   55 am   BACKBONE|DICT|INTERRES
   108   54  117 1    
   109   55   56 2    
   110   55   57 1    
   111   57   58 1    
   112   57   59 1    
   113   57  118 1    
   114   58  119 1    
   115   58  120 1    
   116   58  121 1    
   117   59   60 am   BACKBONE|DICT|INTERRES
   118   59  122 1    
   119   60   61 2    
   120   60   62 1    
   121   62   63 1    
   122   62   64 1    
   123   62  123 1    
   124   63  124 1    
   125   63  125 1    
   126   63  126 1    
   127   64   65 am   BACKBONE|DICT|INTERRES
   128   64  127 1    
   129   65   66 2    
@<TRIPOS>SUBSTRUCTURE
     1 UNK         1 GROUP             0       ****    0 ROOT    
