@<TRIPOS>MOLECULE
3R134
127   129    1
SMALL
USER_CHARGES


@<TRIPOS>ATOM
      1 CA         39.6625  -45.7376  -52.9280 C.3       0 UNK        -0.1968 
      2 C          38.1862  -45.4927  -53.2055 C.2       0 UNK         0.4852 
      3 O          37.8015  -44.3613  -53.5050 O.2       0 UNK        -0.5359 
      4 N          37.3618  -46.5422  -53.1119 N.am      1 UNK        -0.4300 
      5 CA         35.9242  -46.5046  -53.3801 C.3       1 UNK         0.0863 
      6 C6         35.1081  -45.8200  -52.2488 C.3       11 UNK        -0.0953 
      7 S7         33.3532  -45.5631  -52.6818 S.3       11 UNK        -0.2369 
      8 C8         33.4209  -43.8634  -53.3212 C.3       11 UNK         0.0226 
      9 C9         32.0694  -43.4146  -53.8538 C.ar      11 UNK        -0.0699 
     10 C10        31.0563  -43.0449  -52.9653 C.ar      11 UNK        -0.0804 
     11 C11        29.8173  -42.6093  -53.4440 C.ar      11 UNK        -0.0871 
     12 C12        29.6076  -42.5154  -54.8219 C.ar      11 UNK        -0.1008 
     13 C13        30.5983  -42.9181  -55.7220 C.ar      11 UNK        -0.0735 
     14 C14        31.8310  -43.3601  -55.2308 C.ar      11 UNK        -0.0945 
     15 C15        30.3394  -42.8788  -57.2220 C.3       11 UNK         0.0169 
     16 S16        29.2101  -44.2094  -57.7501 S.3       11 UNK        -0.2669 
     17 C17        27.5790  -43.4388  -57.4472 C.3       11 UNK        -0.0850 
     18 CA         26.4220  -44.0336  -58.2866 C.3       10 UNK         0.0855 
     19 C          26.5921  -43.7866  -59.8162 C.2       10 UNK         0.5543 
     20 N          26.6368  -44.8087  -60.6634 N.am      10 UNK        -0.7343 
     21 O          26.6667  -42.6369  -60.2433 O.2       10 UNK        -0.5027 
     22 N          26.1400  -45.4246  -57.9053 N.am      10 UNK        -0.4495 
     23 C          24.9579  -46.0291  -58.0846 C.2       10 UNK         0.4903 
     24 O          23.9494  -45.4435  -58.4833 O.2       10 UNK        -0.4860 
     25 CA         24.8886  -47.5394  -57.7785 C.3       9 UNK         0.0227 
     26 CB         23.7577  -48.2486  -58.5523 C.3       9 UNK        -0.1964 
     27 N          26.1578  -48.2482  -57.9783 N.am      9 UNK        -0.4231 
     28 C          26.9105  -48.3045  -59.0896 C.2       9 UNK         0.5014 
     29 O          26.6246  -47.7261  -60.1391 O.2       9 UNK        -0.5270 
     30 CA         28.2147  -49.1196  -59.0169 C.3       8 UNK         0.0284 
     31 CB         29.4323  -48.2358  -59.3449 C.3       8 UNK        -0.1977 
     32 N          28.3977  -49.7215  -57.6919 N.am      8 UNK        -0.4342 
     33 C          28.1784  -51.0112  -57.4050 C.2       8 UNK         0.5039 
     34 O          27.8909  -51.8611  -58.2489 O.2       8 UNK        -0.5547 
     35 CA         28.2717  -51.4337  -55.9294 C.3       7 UNK         0.0281 
     36 CB         29.7100  -51.8359  -55.5643 C.3       7 UNK        -0.1963 
     37 N          27.7805  -50.4323  -54.9764 N.am      7 UNK        -0.4444 
     38 C          26.4960  -50.0679  -54.8451 C.2       7 UNK         0.5104 
     39 O          25.6050  -50.4217  -55.6160 O.2       7 UNK        -0.5100 
     40 CA         26.1393  -49.1609  -53.6575 C.3       6 UNK         0.0396 
     41 CB         26.1507  -49.9634  -52.3461 C.3       6 UNK        -0.1801 
     42 N          27.0750  -48.0451  -53.5478 N.am      6 UNK        -0.4747 
     43 C          26.8256  -46.7880  -53.9443 C.2       6 UNK         0.5012 
     44 O          25.7376  -46.4057  -54.3760 O.2       6 UNK        -0.5003 
     45 CA         28.0109  -45.7962  -53.8791 C.3       5 UNK         0.0782 
     46 C46        28.0363  -45.0415  -52.5187 C.3       11 UNK        -0.0868 
     47 S47        27.2635  -43.3918  -52.6457 S.3       11 UNK        -0.2515 
     48 C48        28.6948  -42.2697  -52.4725 C.3       11 UNK         0.0199 
     49 N          29.3045  -46.4220  -54.1827 N.am      5 UNK        -0.4607 
     50 C          29.5802  -47.1362  -55.2837 C.2       4 UNK         0.5031 
     51 O          28.7780  -47.3258  -56.1975 O.2       4 UNK        -0.5119 
     52 CA         30.9452  -47.8409  -55.3453 C.3       4 UNK         0.0263 
     53 CB         31.9619  -46.9678  -56.0947 C.3       4 UNK        -0.1967 
     54 N          31.4932  -48.2510  -54.0434 N.am      4 UNK        -0.4237 
     55 C          30.8606  -48.9947  -53.1194 C.2       3 UNK         0.4908 
     56 O          29.7026  -49.3976  -53.2501 O.2       3 UNK        -0.5102 
     57 CA         31.6235  -49.3068  -51.8168 C.3       3 UNK         0.0241 
     58 CB         31.0283  -50.5112  -51.0552 C.3       3 UNK        -0.1971 
     59 N          33.0715  -49.4636  -51.9988 N.am      3 UNK        -0.4139 
     60 C          33.7124  -50.3847  -52.7370 C.2       2 UNK         0.5016 
     61 O          33.1488  -51.2763  -53.3736 O.2       2 UNK        -0.5319 
     62 CA         35.2528  -50.2657  -52.7662 C.3       2 UNK         0.0286 
     63 CB         35.8961  -51.0522  -53.9293 C.3       2 UNK        -0.1963 
     64 N          35.7173  -48.8677  -52.7542 N.am      2 UNK        -0.4790 
     65 C          35.4332  -47.9292  -53.6742 C.2       1 UNK         0.5024 
     66 O          34.7993  -48.1464  -54.7053 O.2       1 UNK        -0.4888 
     67 H67        39.8647  -46.7786  -52.6768 H         1 UNK         0.0892 
     68 H68        39.9949  -45.1180  -52.0956 H         1 UNK         0.0892 
     69 H69        40.2567  -45.4788  -53.8040 H         1 UNK         0.0892 
     70 H70        37.7455  -47.4582  -52.9225 H         1 UNK         0.3107 
     71 H71        35.7805  -45.9291  -54.2978 H         1 UNK         0.0773 
     72 H72        35.1546  -46.4039  -51.3282 H         1 UNK         0.0680 
     73 H73        35.5456  -44.8522  -52.0004 H         1 UNK         0.0680 
     74 H74        33.7425  -43.1895  -52.5258 H         1 UNK         0.0650 
     75 H75        34.1788  -43.8036  -54.1039 H         1 UNK         0.0650 
     76 H76        31.2333  -43.1101  -51.9003 H         1 UNK         0.1397 
     77 H77        28.6563  -42.1587  -55.1878 H         1 UNK         0.1363 
     78 H78        32.6070  -43.6612  -55.9211 H         1 UNK         0.1355 
     79 H79        31.2772  -42.9924  -57.7678 H         1 UNK         0.0707 
     80 H80        29.9427  -41.9040  -57.5084 H         1 UNK         0.0707 
     81 H81        27.6472  -42.3650  -57.6305 H         1 UNK         0.1034 
     82 H82        27.3355  -43.5419  -56.3904 H         1 UNK         0.1034 
     83 H83        25.5370  -43.4552  -58.0138 H         1 UNK         0.0482 
     84 H84        26.5785  -45.7677  -60.3354 H         1 UNK         0.3460 
     85 H85        26.7406  -44.6252  -61.6481 H         1 UNK         0.3460 
     86 H86        26.9310  -45.9707  -57.5911 H         1 UNK         0.2989 
     87 H87        24.6629  -47.6213  -56.7144 H         1 UNK         0.0559 
     88 H88        23.7108  -49.3082  -58.3010 H         1 UNK         0.0848 
     89 H89        23.8937  -48.1644  -59.6311 H         1 UNK         0.0848 
     90 H90        22.7850  -47.8182  -58.3114 H         1 UNK         0.0848 
     91 H91        26.4834  -48.7728  -57.1789 H         1 UNK         0.3144 
     92 H92        28.1493  -49.8959  -59.7818 H         1 UNK         0.0727 
     93 H93        30.3642  -48.7949  -59.2601 H         1 UNK         0.0790 
     94 H94        29.4995  -47.3691  -58.6872 H         1 UNK         0.0790 
     95 H95        29.3737  -47.8579  -60.3663 H         1 UNK         0.0790 
     96 H96        28.6104  -49.0651  -56.9443 H         1 UNK         0.3215 
     97 H97        27.6436  -52.3199  -55.8134 H         1 UNK         0.0863 
     98 H98        29.7697  -52.2162  -54.5442 H         1 UNK         0.0808 
     99 H99        30.4029  -50.9996  -55.6458 H         1 UNK         0.0808 
    100 H100       30.0740  -52.6240  -56.2247 H         1 UNK         0.0808 
    101 H101       28.4599  -50.0814  -54.3016 H         1 UNK         0.3118 
    102 H102       25.1239  -48.7902  -53.8127 H         1 UNK         0.0546 
    103 H103       25.4684  -50.8127  -52.4019 H         1 UNK         0.0828 
    104 H104       25.8323  -49.3477  -51.5049 H         1 UNK         0.0828 
    105 H105       27.1426  -50.3551  -52.1156 H         1 UNK         0.0828 
    106 H106       28.0200  -48.2799  -53.2610 H         1 UNK         0.3005 
    107 H107       27.8529  -45.0792  -54.6863 H         1 UNK         0.1257 
    108 H108       29.0572  -44.9217  -52.1551 H         1 UNK         0.0775 
    109 H109       27.5304  -45.5995  -51.7279 H         1 UNK         0.0775 
    110 H110       28.3663  -41.2440  -52.6460 H         1 UNK         0.0840 
    111 H111       29.0484  -42.3076  -51.4409 H         1 UNK         0.0840 
    112 H112       30.0323  -46.3141  -53.4926 H         1 UNK         0.2987 
    113 H113       30.8006  -48.7487  -55.9313 H         1 UNK         0.0785 
    114 H114       32.2920  -46.1256  -55.4887 H         1 UNK         0.0798 
    115 H115       31.5356  -46.5626  -57.0141 H         1 UNK         0.0798 
    116 H116       32.8426  -47.5430  -56.3783 H         1 UNK         0.0798 
    117 H117       32.4492  -47.9767  -53.8616 H         1 UNK         0.3079 
    118 H118       31.4945  -48.4270  -51.1846 H         1 UNK         0.0794 
    119 H119       31.0514  -51.4210  -51.6560 H         1 UNK         0.0786 
    120 H120       29.9873  -50.3291  -50.7849 H         1 UNK         0.0786 
    121 H121       31.5715  -50.7050  -50.1304 H         1 UNK         0.0786 
    122 H122       33.6420  -48.7773  -51.5253 H         1 UNK         0.3032 
    123 H123       35.6016  -50.7178  -51.8360 H         1 UNK         0.1094 
    124 H124       35.5369  -50.7101  -54.9003 H         1 UNK         0.0794 
    125 H125       36.9818  -50.9579  -53.9202 H         1 UNK         0.0794 
    126 H126       35.6644  -52.1156  -53.8562 H         1 UNK         0.0794 
    127 H127       36.2161  -48.5871  -51.9203 H         1 UNK         0.3016 
@<TRIPOS>BOND
     1    1    2 1    
     2    1   67 1    
     3    1   68 1    
     4    1   69 1    
     5    2    3 2    
     6    2    4 am   BACKBONE|DICT|INTERRES
     7    4    5 1    
     8    4   70 1    
     9    5    6 1    
    10    5   65 1    
    11    5   71 1    
    12    6    7 1    
    13    6   72 1    
    14    6   73 1    
    15    7    8 1    
    16    8    9 1    
    17    8   74 1    
    18    8   75 1    
    19    9   10 ar   
    20    9   14 ar   
    21   10   11 ar   
    22   10   76 1    
    23   11   12 ar   
    24   11   48 1    
    25   12   13 ar   
    26   12   77 1    
    27   13   14 ar   
    28   13   15 1    
    29   14   78 1    
    30   15   16 1    
    31   15   79 1    
    32   15   80 1    
    33   16   17 1    
    34   17   18 1    
    35   17   81 1    
    36   17   82 1    
    37   18   19 1    
    38   18   22 1    
    39   18   83 1    
    40   19   20 am   BACKBONE|DICT|INTERRES
    41   19   21 2    
    42   20   84 1    
    43   20   85 1    
    44   22   23 am   BACKBONE|DICT|INTERRES
    45   22   86 1    
    46   23   24 2    
    47   23   25 1    
    48   25   26 1    
    49   25   27 1    
    50   25   87 1    
    51   26   88 1    
    52   26   89 1    
    53   26   90 1    
    54   27   28 am   BACKBONE|DICT|INTERRES
    55   27   91 1    
    56   28   29 2    
    57   28   30 1    
    58   30   31 1    
    59   30   32 1    
    60   30   92 1    
    61   31   93 1    
    62   31   94 1    
    63   31   95 1    
    64   32   33 am   BACKBONE|DICT|INTERRES
    65   32   96 1    
    66   33   34 2    
    67   33   35 1    
    68   35   36 1    
    69   35   37 1    
    70   35   97 1    
    71   36   98 1    
    72   36   99 1    
    73   36  100 1    
    74   37   38 am   BACKBONE|DICT|INTERRES
    75   37  101 1    
    76   38   39 2    
    77   38   40 1    
    78   40   41 1    
    79   40   42 1    
    80   40  102 1    
    81   41  103 1    
    82   41  104 1    
    83   41  105 1    
    84   42   43 am   BACKBONE|DICT|INTERRES
    85   42  106 1    
    86   43   44 2    
    87   43   45 1    
    88   45   46 1    
    89   45   49 1    
    90   45  107 1    
    91   46   47 1    
    92   46  108 1    
    93   46  109 1    
    94   47   48 1    
    95   48  110 1    
    96   48  111 1    
    97   49   50 am   BACKBONE|DICT|INTERRES
    98   49  112 1    
    99   50   51 2    
   100   50   52 1    
   101   52   53 1    
   102   52   54 1    
   103   52  113 1    
   104   53  114 1    
   105   53  115 1    
   106   53  116 1    
   107   54   55 am   BACKBONE|DICT|INTERRES
   108   54  117 1    
   109   55   56 2    
   110   55   57 1    
   111   57   58 1    
   112   57   59 1    
   113   57  118 1    
   114   58  119 1    
   115   58  120 1    
   116   58  121 1    
   117   59   60 am   BACKBONE|DICT|INTERRES
   118   59  122 1    
   119   60   61 2    
   120   60   62 1    
   121   62   63 1    
   122   62   64 1    
   123   62  123 1    
   124   63  124 1    
   125   63  125 1    
   126   63  126 1    
   127   64   65 am   BACKBONE|DICT|INTERRES
   128   64  127 1    
   129   65   66 2    
@<TRIPOS>SUBSTRUCTURE
     1 UNK         1 GROUP             0       ****    0 ROOT    
