@<TRIPOS>MOLECULE
3R134
127   129    1
SMALL
USER_CHARGES


@<TRIPOS>ATOM
      1 CA         38.9689  -45.8853  -52.9831 C.3       0 UNK        -0.1968 
      2 C          37.6339  -46.6056  -52.8608 C.2       0 UNK         0.4852 
      3 O          37.6004  -47.7623  -52.4370 O.2       0 UNK        -0.5359 
      4 N          36.5382  -45.9344  -53.2366 N.am      1 UNK        -0.4300 
      5 CA         35.1656  -46.4341  -53.1186 C.3       1 UNK         0.0863 
      6 C6         34.2136  -45.7059  -54.0988 C.3       11 UNK        -0.0953 
      7 S7         34.0828  -43.8988  -53.8529 S.3       11 UNK        -0.2369 
      8 C8         32.3350  -43.7249  -53.3386 C.3       11 UNK         0.0226 
      9 C9         31.2981  -44.2085  -54.3567 C.ar      11 UNK        -0.0699 
     10 C10        31.5800  -44.2857  -55.7264 C.ar      11 UNK        -0.0804 
     11 C11        30.6311  -44.7747  -56.6270 C.ar      11 UNK        -0.0871 
     12 C12        29.3670  -45.1397  -56.1630 C.ar      11 UNK        -0.1008 
     13 C13        29.0497  -45.0203  -54.8078 C.ar      11 UNK        -0.0735 
     14 C14        30.0242  -44.5755  -53.9080 C.ar      11 UNK        -0.0945 
     15 C15        27.6516  -45.3742  -54.3240 C.3       11 UNK         0.0169 
     16 S16        26.6796  -43.9034  -53.8586 S.3       11 UNK        -0.2669 
     17 C17        26.6044  -42.9531  -55.4190 C.3       11 UNK        -0.0850 
     18 CA         25.1784  -42.8831  -56.0406 C.3       10 UNK         0.0855 
     19 C          25.0931  -41.8570  -57.2138 C.2       10 UNK         0.5543 
     20 N          24.2778  -42.0867  -58.2362 N.am      10 UNK        -0.7343 
     21 O          25.7479  -40.8176  -57.1847 O.2       10 UNK        -0.5027 
     22 N          24.5959  -44.2058  -56.3430 N.am      10 UNK        -0.4495 
     23 C          25.0878  -45.1110  -57.1983 C.2       10 UNK         0.4903 
     24 O          26.1393  -44.9808  -57.8268 O.2       10 UNK        -0.4860 
     25 CA         24.2379  -46.3707  -57.4185 C.3       9 UNK         0.0227 
     26 CB         23.6923  -46.4174  -58.8557 C.3       9 UNK        -0.1964 
     27 N          25.0346  -47.5688  -57.1650 N.am      9 UNK        -0.4231 
     28 C          25.3084  -48.0523  -55.9463 C.2       9 UNK         0.5014 
     29 O          24.8508  -47.5692  -54.9101 O.2       9 UNK        -0.5270 
     30 CA         26.2267  -49.2848  -55.8524 C.3       8 UNK         0.0284 
     31 CB         25.5065  -50.4545  -55.1591 C.3       8 UNK        -0.1977 
     32 N          26.7218  -49.7414  -57.1560 N.am      8 UNK        -0.4342 
     33 C          27.8815  -49.3661  -57.7069 C.2       8 UNK         0.5039 
     34 O          28.6812  -48.5884  -57.1785 O.2       8 UNK        -0.5547 
     35 CA         28.1900  -49.9497  -59.0910 C.3       7 UNK         0.0281 
     36 CB         27.5203  -49.1125  -60.1940 C.3       7 UNK        -0.1963 
     37 N          29.6347  -49.9270  -59.2841 N.am      7 UNK        -0.4444 
     38 C          30.3908  -50.9336  -59.7404 C.2       7 UNK         0.5104 
     39 O          29.9348  -51.9972  -60.1615 O.2       7 UNK        -0.5100 
     40 CA         31.9199  -50.7254  -59.7214 C.3       6 UNK         0.0396 
     41 CB         32.4365  -50.4096  -61.1340 C.3       6 UNK        -0.1801 
     42 N          32.3250  -49.6493  -58.8127 N.am      6 UNK        -0.4747 
     43 C          32.3224  -49.7373  -57.4757 C.2       6 UNK         0.5012 
     44 O          32.1788  -50.8022  -56.8713 O.2       6 UNK        -0.5003 
     45 CA         32.4394  -48.4218  -56.6771 C.3       5 UNK         0.0782 
     46 C46        32.6665  -47.1471  -57.5441 C.3       11 UNK        -0.0868 
     47 S47        31.2419  -46.6461  -58.5861 S.3       11 UNK        -0.2515 
     48 C48        30.9751  -44.9106  -58.1018 C.3       11 UNK         0.0199 
     49 N          31.2385  -48.3403  -55.8449 N.am      5 UNK        -0.4607 
     50 C          31.2003  -48.5356  -54.5248 C.2       4 UNK         0.5031 
     51 O          32.1919  -48.5544  -53.7849 O.2       4 UNK        -0.5119 
     52 CA         29.8126  -48.8222  -53.9397 C.3       4 UNK         0.0263 
     53 CB         29.3912  -50.2761  -54.2305 C.3       4 UNK        -0.1967 
     54 N          29.8775  -48.6239  -52.5013 N.am      4 UNK        -0.4237 
     55 C          28.8625  -48.3420  -51.6785 C.2       3 UNK         0.4908 
     56 O          27.6893  -48.2649  -52.0424 O.2       3 UNK        -0.5102 
     57 CA         29.2056  -48.1241  -50.1892 C.3       3 UNK         0.0241 
     58 CB         28.5919  -49.2375  -49.3229 C.3       3 UNK        -0.1971 
     59 N          30.6484  -48.0585  -49.9240 N.am      3 UNK        -0.4139 
     60 C          31.4428  -47.0342  -50.2634 C.2       2 UNK         0.5016 
     61 O          31.0250  -45.9870  -50.7572 O.2       2 UNK        -0.5319 
     62 CA         32.9539  -47.2146  -50.0663 C.3       2 UNK         0.0286 
     63 CB         33.3639  -48.5322  -49.3741 C.3       2 UNK        -0.1963 
     64 N          33.5987  -47.1400  -51.3777 N.am      2 UNK        -0.4790 
     65 C          34.6639  -46.3827  -51.6587 C.2       1 UNK         0.5024 
     66 O          35.2311  -45.6652  -50.8292 O.2       1 UNK        -0.4888 
     67 H67        38.8539  -44.8785  -53.3844 H         1 UNK         0.0892 
     68 H68        39.6354  -46.4392  -53.6437 H         1 UNK         0.0892 
     69 H69        39.4439  -45.8080  -52.0055 H         1 UNK         0.0892 
     70 H70        36.6186  -44.9745  -53.5405 H         1 UNK         0.3107 
     71 H71        35.1757  -47.4877  -53.4079 H         1 UNK         0.0773 
     72 H72        33.2205  -46.1532  -54.0594 H         1 UNK         0.0680 
     73 H73        34.5596  -45.8707  -55.1198 H         1 UNK         0.0680 
     74 H74        32.1420  -42.6736  -53.1227 H         1 UNK         0.0650 
     75 H75        32.2071  -44.2625  -52.3986 H         1 UNK         0.0650 
     76 H76        32.5498  -43.9899  -56.0992 H         1 UNK         0.1397 
     77 H77        28.6292  -45.5123  -56.8615 H         1 UNK         0.1363 
     78 H78        29.7845  -44.5061  -52.8553 H         1 UNK         0.1355 
     79 H79        27.7254  -46.0328  -53.4594 H         1 UNK         0.0707 
     80 H80        27.1123  -45.9317  -55.0888 H         1 UNK         0.0707 
     81 H81        27.3143  -43.3452  -56.1458 H         1 UNK         0.1034 
     82 H82        26.9623  -41.9497  -55.1821 H         1 UNK         0.1034 
     83 H83        24.5256  -42.4610  -55.2757 H         1 UNK         0.0482 
     84 H84        24.2203  -41.4125  -58.9833 H         1 UNK         0.3460 
     85 H85        23.7221  -42.9257  -58.2678 H         1 UNK         0.3460 
     86 H86        23.7252  -44.4093  -55.8732 H         1 UNK         0.2989 
     87 H87        23.3861  -46.3599  -56.7346 H         1 UNK         0.0559 
     88 H88        23.0696  -47.2978  -59.0159 H         1 UNK         0.0848 
     89 H89        24.4946  -46.4349  -59.5949 H         1 UNK         0.0848 
     90 H90        23.0752  -45.5433  -59.0672 H         1 UNK         0.0848 
     91 H91        25.4948  -47.9858  -57.9594 H         1 UNK         0.3144 
     92 H92        27.0677  -48.9905  -55.2241 H         1 UNK         0.0727 
     93 H93        26.1649  -51.3164  -55.0497 H         1 UNK         0.0790 
     94 H94        24.6231  -50.7727  -55.7139 H         1 UNK         0.0790 
     95 H95        25.1794  -50.1730  -54.1570 H         1 UNK         0.0790 
     96 H96        26.1272  -50.3855  -57.6597 H         1 UNK         0.3215 
     97 H97        27.8188  -50.9763  -59.1296 H         1 UNK         0.0863 
     98 H98        27.7632  -49.4986  -61.1841 H         1 UNK         0.0808 
     99 H99        27.8377  -48.0691  -60.1560 H         1 UNK         0.0808 
    100 H100       26.4340  -49.1292  -60.0994 H         1 UNK         0.0808 
    101 H101       30.0908  -49.1119  -58.8940 H         1 UNK         0.3118 
    102 H102       32.3794  -51.6584  -59.3883 H         1 UNK         0.0546 
    103 H103       32.0097  -49.4845  -61.5237 H         1 UNK         0.0828 
    104 H104       32.1763  -51.2071  -61.8314 H         1 UNK         0.0828 
    105 H105       33.5221  -50.3116  -61.1474 H         1 UNK         0.0828 
    106 H106       32.4254  -48.7290  -59.2213 H         1 UNK         0.3005 
    107 H107       33.3199  -48.5442  -56.0422 H         1 UNK         0.1257 
    108 H108       32.9320  -46.3247  -56.8832 H         1 UNK         0.0775 
    109 H109       33.5405  -47.2700  -58.1862 H         1 UNK         0.0775 
    110 H110       31.8633  -44.3280  -58.3511 H         1 UNK         0.0840 
    111 H111       30.1620  -44.4985  -58.7012 H         1 UNK         0.0840 
    112 H112       30.3561  -48.3418  -56.3551 H         1 UNK         0.2987 
    113 H113       29.0985  -48.1201  -54.3744 H         1 UNK         0.0785 
    114 H114       30.0969  -50.9895  -53.8032 H         1 UNK         0.0798 
    115 H115       29.3480  -50.4702  -55.3023 H         1 UNK         0.0798 
    116 H116       28.4060  -50.4968  -53.8200 H         1 UNK         0.0798 
    117 H117       30.8201  -48.6365  -52.1363 H         1 UNK         0.3079 
    118 H118       28.7585  -47.1728  -49.8927 H         1 UNK         0.0794 
    119 H119       28.9981  -50.2173  -49.5771 H         1 UNK         0.0786 
    120 H120       27.5107  -49.2883  -49.4598 H         1 UNK         0.0786 
    121 H121       28.7731  -49.0616  -48.2624 H         1 UNK         0.0786 
    122 H122       31.0715  -48.8811  -49.5180 H         1 UNK         0.3032 
    123 H123       33.2722  -46.3832  -49.4330 H         1 UNK         0.1094 
    124 H124       34.4427  -48.5663  -49.2193 H         1 UNK         0.0794 
    125 H125       32.9030  -48.6261  -48.3898 H         1 UNK         0.0794 
    126 H126       33.0933  -49.4098  -49.9628 H         1 UNK         0.0794 
    127 H127       33.1528  -47.6522  -52.1332 H         1 UNK         0.3016 
@<TRIPOS>BOND
     1    1    2 1    
     2    1   67 1    
     3    1   68 1    
     4    1   69 1    
     5    2    3 2    
     6    2    4 am   BACKBONE|DICT|INTERRES
     7    4    5 1    
     8    4   70 1    
     9    5    6 1    
    10    5   65 1    
    11    5   71 1    
    12    6    7 1    
    13    6   72 1    
    14    6   73 1    
    15    7    8 1    
    16    8    9 1    
    17    8   74 1    
    18    8   75 1    
    19    9   10 ar   
    20    9   14 ar   
    21   10   11 ar   
    22   10   76 1    
    23   11   12 ar   
    24   11   48 1    
    25   12   13 ar   
    26   12   77 1    
    27   13   14 ar   
    28   13   15 1    
    29   14   78 1    
    30   15   16 1    
    31   15   79 1    
    32   15   80 1    
    33   16   17 1    
    34   17   18 1    
    35   17   81 1    
    36   17   82 1    
    37   18   19 1    
    38   18   22 1    
    39   18   83 1    
    40   19   20 am   BACKBONE|DICT|INTERRES
    41   19   21 2    
    42   20   84 1    
    43   20   85 1    
    44   22   23 am   BACKBONE|DICT|INTERRES
    45   22   86 1    
    46   23   24 2    
    47   23   25 1    
    48   25   26 1    
    49   25   27 1    
    50   25   87 1    
    51   26   88 1    
    52   26   89 1    
    53   26   90 1    
    54   27   28 am   BACKBONE|DICT|INTERRES
    55   27   91 1    
    56   28   29 2    
    57   28   30 1    
    58   30   31 1    
    59   30   32 1    
    60   30   92 1    
    61   31   93 1    
    62   31   94 1    
    63   31   95 1    
    64   32   33 am   BACKBONE|DICT|INTERRES
    65   32   96 1    
    66   33   34 2    
    67   33   35 1    
    68   35   36 1    
    69   35   37 1    
    70   35   97 1    
    71   36   98 1    
    72   36   99 1    
    73   36  100 1    
    74   37   38 am   BACKBONE|DICT|INTERRES
    75   37  101 1    
    76   38   39 2    
    77   38   40 1    
    78   40   41 1    
    79   40   42 1    
    80   40  102 1    
    81   41  103 1    
    82   41  104 1    
    83   41  105 1    
    84   42   43 am   BACKBONE|DICT|INTERRES
    85   42  106 1    
    86   43   44 2    
    87   43   45 1    
    88   45   46 1    
    89   45   49 1    
    90   45  107 1    
    91   46   47 1    
    92   46  108 1    
    93   46  109 1    
    94   47   48 1    
    95   48  110 1    
    96   48  111 1    
    97   49   50 am   BACKBONE|DICT|INTERRES
    98   49  112 1    
    99   50   51 2    
   100   50   52 1    
   101   52   53 1    
   102   52   54 1    
   103   52  113 1    
   104   53  114 1    
   105   53  115 1    
   106   53  116 1    
   107   54   55 am   BACKBONE|DICT|INTERRES
   108   54  117 1    
   109   55   56 2    
   110   55   57 1    
   111   57   58 1    
   112   57   59 1    
   113   57  118 1    
   114   58  119 1    
   115   58  120 1    
   116   58  121 1    
   117   59   60 am   BACKBONE|DICT|INTERRES
   118   59  122 1    
   119   60   61 2    
   120   60   62 1    
   121   62   63 1    
   122   62   64 1    
   123   62  123 1    
   124   63  124 1    
   125   63  125 1    
   126   63  126 1    
   127   64   65 am   BACKBONE|DICT|INTERRES
   128   64  127 1    
   129   65   66 2    
@<TRIPOS>SUBSTRUCTURE
     1 UNK         1 GROUP             0       ****    0 ROOT    
