@<TRIPOS>MOLECULE
3R134
127   129    1
SMALL
USER_CHARGES


@<TRIPOS>ATOM
      1 CA         32.9047  -46.1082  -59.5045 C.3       0 UNK        -0.1968 
      2 C          31.5121  -46.3089  -58.9127 C.2       0 UNK         0.4852 
      3 O          30.5512  -46.3177  -59.6758 O.2       0 UNK        -0.5359 
      4 N          31.3290  -46.4789  -57.5931 N.am      1 UNK        -0.4300 
      5 CA         32.3376  -46.6305  -56.5336 C.3       1 UNK         0.0863 
      6 C6         33.2982  -45.4128  -56.4045 C.3       11 UNK        -0.0953 
      7 S7         34.0817  -45.2747  -54.7609 S.3       11 UNK        -0.2369 
      8 C8         33.8315  -43.5167  -54.3640 C.3       11 UNK         0.0226 
      9 C9         32.5285  -43.3049  -53.6126 C.ar      11 UNK        -0.0699 
     10 C10        32.5185  -43.3357  -52.2161 C.ar      11 UNK        -0.0804 
     11 C11        31.3247  -43.1670  -51.5102 C.ar      11 UNK        -0.0871 
     12 C12        30.1315  -42.9650  -52.2121 C.ar      11 UNK        -0.1008 
     13 C13        30.1311  -42.9307  -53.6108 C.ar      11 UNK        -0.0735 
     14 C14        31.3345  -43.0891  -54.3045 C.ar      11 UNK        -0.0945 
     15 C15        28.8337  -42.7326  -54.3787 C.3       11 UNK         0.0169 
     16 S16        28.4042  -44.2294  -55.3156 S.3       11 UNK        -0.2669 
     17 C17        26.6933  -43.8428  -55.8145 C.3       11 UNK        -0.0850 
     18 CA         26.0361  -45.0642  -56.5124 C.3       10 UNK         0.0855 
     19 C          24.4773  -45.0209  -56.5496 C.2       10 UNK         0.5543 
     20 N          23.8289  -45.7243  -57.4707 N.am      10 UNK        -0.7343 
     21 O          23.8444  -44.3774  -55.7164 O.2       10 UNK        -0.5027 
     22 N          26.6867  -45.3936  -57.7890 N.am      10 UNK        -0.4495 
     23 C          26.5386  -44.7499  -58.9557 C.2       10 UNK         0.4903 
     24 O          25.8912  -43.7107  -59.0887 O.2       10 UNK        -0.4860 
     25 CA         27.2010  -45.3757  -60.1996 C.3       9 UNK         0.0227 
     26 CB         28.2921  -44.4449  -60.7538 C.3       9 UNK        -0.1964 
     27 N          27.7537  -46.7181  -59.9638 N.am      9 UNK        -0.4231 
     28 C          27.0077  -47.8134  -59.7474 C.2       9 UNK         0.5014 
     29 O          25.7754  -47.8091  -59.7806 O.2       9 UNK        -0.5270 
     30 CA         27.7208  -49.1304  -59.3871 C.3       8 UNK         0.0284 
     31 CB         29.1668  -49.2534  -59.9086 C.3       8 UNK        -0.1977 
     32 N          27.6450  -49.4197  -57.9486 N.am      8 UNK        -0.4342 
     33 C          28.0795  -48.6514  -56.9390 C.2       8 UNK         0.5039 
     34 O          28.6847  -47.5841  -57.0817 O.2       8 UNK        -0.5547 
     35 CA         27.8070  -49.1749  -55.5249 C.3       7 UNK         0.0281 
     36 CB         28.9728  -50.0479  -55.0309 C.3       7 UNK        -0.1963 
     37 N          27.6549  -48.0385  -54.6207 N.am      7 UNK        -0.4444 
     38 C          26.6351  -47.8495  -53.7749 C.2       7 UNK         0.5104 
     39 O          25.6883  -48.6295  -53.6578 O.2       7 UNK        -0.5100 
     40 CA         26.6917  -46.5672  -52.9168 C.3       6 UNK         0.0396 
     41 CB         25.6611  -46.5630  -51.7676 C.3       6 UNK        -0.1801 
     42 N          28.0411  -46.2753  -52.4133 N.am      6 UNK        -0.4747 
     43 C          28.7755  -47.0628  -51.6132 C.2       6 UNK         0.5012 
     44 O          28.3909  -48.1482  -51.1694 O.2       6 UNK        -0.5003 
     45 CA         30.1566  -46.5238  -51.1959 C.3       5 UNK         0.0782 
     46 C46        30.0189  -45.7074  -49.8862 C.3       11 UNK        -0.0868 
     47 S47        31.5800  -44.9157  -49.3790 S.3       11 UNK        -0.2515 
     48 C48        31.3343  -43.2174  -49.9897 C.3       11 UNK         0.0199 
     49 N          31.0991  -47.6355  -51.0538 N.am      5 UNK        -0.4607 
     50 C          31.6090  -48.3282  -52.0770 C.2       4 UNK         0.5031 
     51 O          31.4601  -48.0275  -53.2649 O.2       4 UNK        -0.5119 
     52 CA         32.3832  -49.5953  -51.7040 C.3       4 UNK         0.0263 
     53 CB         31.4093  -50.7499  -51.3948 C.3       4 UNK        -0.1967 
     54 N          33.2496  -49.9536  -52.8199 N.am      4 UNK        -0.4237 
     55 C          34.2845  -50.7994  -52.7758 C.2       3 UNK         0.4908 
     56 O          34.6431  -51.3758  -51.7471 O.2       3 UNK        -0.5102 
     57 CA         35.0744  -51.0247  -54.0822 C.3       3 UNK         0.0241 
     58 CB         35.5822  -52.4765  -54.2190 C.3       3 UNK        -0.1971 
     59 N          34.3723  -50.5982  -55.3010 N.am      3 UNK        -0.4139 
     60 C          33.2443  -51.0955  -55.8286 C.2       2 UNK         0.5016 
     61 O          32.5864  -52.0079  -55.3264 O.2       2 UNK        -0.5319 
     62 CA         32.7674  -50.4242  -57.1311 C.3       2 UNK         0.0286 
     63 CB         31.6777  -51.2338  -57.8556 C.3       2 UNK        -0.1963 
     64 N          32.2811  -49.0591  -56.9059 N.am      2 UNK        -0.4790 
     65 C          33.0572  -47.9923  -56.6644 C.2       1 UNK         0.5024 
     66 O          34.2865  -48.0624  -56.6045 O.2       1 UNK        -0.4888 
     67 H67        33.2519  -45.0924  -59.3206 H         1 UNK         0.0892 
     68 H68        33.6329  -46.8125  -59.1080 H         1 UNK         0.0892 
     69 H69        32.8755  -46.2533  -60.5842 H         1 UNK         0.0892 
     70 H70        30.3714  -46.6429  -57.2884 H         1 UNK         0.3107 
     71 H71        31.7597  -46.6858  -55.6096 H         1 UNK         0.0773 
     72 H72        32.7451  -44.4958  -56.6072 H         1 UNK         0.0680 
     73 H73        34.0978  -45.4463  -57.1446 H         1 UNK         0.0680 
     74 H74        33.8586  -42.9115  -55.2712 H         1 UNK         0.0650 
     75 H75        34.6692  -43.1777  -53.7526 H         1 UNK         0.0650 
     76 H76        33.4395  -43.5075  -51.6755 H         1 UNK         0.1397 
     77 H77        29.2040  -42.8391  -51.6699 H         1 UNK         0.1363 
     78 H78        31.3325  -43.0660  -55.3854 H         1 UNK         0.1355 
     79 H79        28.0191  -42.4826  -53.6971 H         1 UNK         0.0707 
     80 H80        28.9374  -41.8914  -55.0656 H         1 UNK         0.0707 
     81 H81        26.1418  -43.5603  -54.9161 H         1 UNK         0.1034 
     82 H82        26.6857  -42.9696  -56.4687 H         1 UNK         0.1034 
     83 H83        26.2333  -45.9325  -55.8887 H         1 UNK         0.0482 
     84 H84        24.3387  -46.2652  -58.1536 H         1 UNK         0.3460 
     85 H85        22.8215  -45.7062  -57.4890 H         1 UNK         0.3460 
     86 H86        27.2985  -46.2022  -57.7657 H         1 UNK         0.2989 
     87 H87        26.4259  -45.4688  -60.9630 H         1 UNK         0.0559 
     88 H88        27.8642  -43.4972  -61.0830 H         1 UNK         0.0848 
     89 H89        28.7998  -44.8871  -61.6110 H         1 UNK         0.0848 
     90 H90        29.0438  -44.2122  -59.9989 H         1 UNK         0.0848 
     91 H91        28.7673  -46.7712  -59.8569 H         1 UNK         0.3144 
     92 H92        27.1437  -49.9107  -59.8861 H         1 UNK         0.0727 
     93 H93        29.4606  -50.3010  -59.9643 H         1 UNK         0.0790 
     94 H94        29.8840  -48.7514  -59.2630 H         1 UNK         0.0790 
     95 H95        29.2721  -48.8429  -60.9138 H         1 UNK         0.0790 
     96 H96        27.1443  -50.2660  -57.7139 H         1 UNK         0.3215 
     97 H97        26.8937  -49.7734  -55.5436 H         1 UNK         0.0863 
     98 H98        28.8118  -50.3748  -54.0034 H         1 UNK         0.0808 
     99 H99        29.9229  -49.5131  -55.0601 H         1 UNK         0.0808 
    100 H100       29.0781  -50.9453  -55.6406 H         1 UNK         0.0808 
    101 H101       28.3561  -47.3157  -54.7178 H         1 UNK         0.3118 
    102 H102       26.4283  -45.7417  -53.5758 H         1 UNK         0.0546 
    103 H103       24.6447  -46.6395  -52.1559 H         1 UNK         0.0828 
    104 H104       25.7157  -45.6416  -51.1881 H         1 UNK         0.0828 
    105 H105       25.8093  -47.3994  -51.0839 H         1 UNK         0.0828 
    106 H106       28.4457  -45.4090  -52.7432 H         1 UNK         0.3005 
    107 H107       30.5269  -45.8709  -51.9900 H         1 UNK         0.1257 
    108 H108       29.6880  -46.3506  -49.0683 H         1 UNK         0.0775 
    109 H109       29.2511  -44.9377  -49.9866 H         1 UNK         0.0775 
    110 H110       30.4117  -42.8067  -49.5762 H         1 UNK         0.0840 
    111 H111       32.1415  -42.5870  -49.6136 H         1 UNK         0.0840 
    112 H112       31.2523  -47.9639  -50.1121 H         1 UNK         0.2987 
    113 H113       33.0003  -49.3832  -50.8283 H         1 UNK         0.0785 
    114 H114       31.9392  -51.6488  -51.0800 H         1 UNK         0.0798 
    115 H115       30.8058  -51.0062  -52.2667 H         1 UNK         0.0798 
    116 H116       30.7224  -50.4834  -50.5904 H         1 UNK         0.0798 
    117 H117       33.0189  -49.4838  -53.6865 H         1 UNK         0.3079 
    118 H118       35.9510  -50.3796  -54.0073 H         1 UNK         0.0794 
    119 H119       36.2363  -52.7442  -53.3883 H         1 UNK         0.0786 
    120 H120       36.1560  -52.6120  -55.1357 H         1 UNK         0.0786 
    121 H121       34.7606  -53.1934  -54.2276 H         1 UNK         0.0786 
    122 H122       34.7627  -49.7831  -55.7670 H         1 UNK         0.3032 
    123 H123       33.6313  -50.3802  -57.7990 H         1 UNK         0.1094 
    124 H124       31.4790  -50.8215  -58.8438 H         1 UNK         0.0794 
    125 H125       31.9895  -52.2692  -57.9999 H         1 UNK         0.0794 
    126 H126       30.7410  -51.2500  -57.2994 H         1 UNK         0.0794 
    127 H127       31.2816  -48.9216  -56.9485 H         1 UNK         0.3016 
@<TRIPOS>BOND
     1    1    2 1    
     2    1   67 1    
     3    1   68 1    
     4    1   69 1    
     5    2    3 2    
     6    2    4 am   BACKBONE|DICT|INTERRES
     7    4    5 1    
     8    4   70 1    
     9    5    6 1    
    10    5   65 1    
    11    5   71 1    
    12    6    7 1    
    13    6   72 1    
    14    6   73 1    
    15    7    8 1    
    16    8    9 1    
    17    8   74 1    
    18    8   75 1    
    19    9   10 ar   
    20    9   14 ar   
    21   10   11 ar   
    22   10   76 1    
    23   11   12 ar   
    24   11   48 1    
    25   12   13 ar   
    26   12   77 1    
    27   13   14 ar   
    28   13   15 1    
    29   14   78 1    
    30   15   16 1    
    31   15   79 1    
    32   15   80 1    
    33   16   17 1    
    34   17   18 1    
    35   17   81 1    
    36   17   82 1    
    37   18   19 1    
    38   18   22 1    
    39   18   83 1    
    40   19   20 am   BACKBONE|DICT|INTERRES
    41   19   21 2    
    42   20   84 1    
    43   20   85 1    
    44   22   23 am   BACKBONE|DICT|INTERRES
    45   22   86 1    
    46   23   24 2    
    47   23   25 1    
    48   25   26 1    
    49   25   27 1    
    50   25   87 1    
    51   26   88 1    
    52   26   89 1    
    53   26   90 1    
    54   27   28 am   BACKBONE|DICT|INTERRES
    55   27   91 1    
    56   28   29 2    
    57   28   30 1    
    58   30   31 1    
    59   30   32 1    
    60   30   92 1    
    61   31   93 1    
    62   31   94 1    
    63   31   95 1    
    64   32   33 am   BACKBONE|DICT|INTERRES
    65   32   96 1    
    66   33   34 2    
    67   33   35 1    
    68   35   36 1    
    69   35   37 1    
    70   35   97 1    
    71   36   98 1    
    72   36   99 1    
    73   36  100 1    
    74   37   38 am   BACKBONE|DICT|INTERRES
    75   37  101 1    
    76   38   39 2    
    77   38   40 1    
    78   40   41 1    
    79   40   42 1    
    80   40  102 1    
    81   41  103 1    
    82   41  104 1    
    83   41  105 1    
    84   42   43 am   BACKBONE|DICT|INTERRES
    85   42  106 1    
    86   43   44 2    
    87   43   45 1    
    88   45   46 1    
    89   45   49 1    
    90   45  107 1    
    91   46   47 1    
    92   46  108 1    
    93   46  109 1    
    94   47   48 1    
    95   48  110 1    
    96   48  111 1    
    97   49   50 am   BACKBONE|DICT|INTERRES
    98   49  112 1    
    99   50   51 2    
   100   50   52 1    
   101   52   53 1    
   102   52   54 1    
   103   52  113 1    
   104   53  114 1    
   105   53  115 1    
   106   53  116 1    
   107   54   55 am   BACKBONE|DICT|INTERRES
   108   54  117 1    
   109   55   56 2    
   110   55   57 1    
   111   57   58 1    
   112   57   59 1    
   113   57  118 1    
   114   58  119 1    
   115   58  120 1    
   116   58  121 1    
   117   59   60 am   BACKBONE|DICT|INTERRES
   118   59  122 1    
   119   60   61 2    
   120   60   62 1    
   121   62   63 1    
   122   62   64 1    
   123   62  123 1    
   124   63  124 1    
   125   63  125 1    
   126   63  126 1    
   127   64   65 am   BACKBONE|DICT|INTERRES
   128   64  127 1    
   129   65   66 2    
@<TRIPOS>SUBSTRUCTURE
     1 UNK         1 GROUP             0       ****    0 ROOT    
