@<TRIPOS>MOLECULE
3R134
127   129    1
SMALL
USER_CHARGES


@<TRIPOS>ATOM
      1 CA         32.9433  -46.7898  -50.0970 C.3       0 UNK        -0.1968 
      2 C          34.1016  -46.1500  -50.8472 C.2       0 UNK         0.4852 
      3 O          34.7631  -45.2568  -50.3109 O.2       0 UNK        -0.5359 
      4 N          34.3471  -46.6091  -52.0775 N.am      1 UNK        -0.4300 
      5 CA         35.4459  -46.1911  -52.9457 C.3       1 UNK         0.0863 
      6 C6         34.9579  -45.2659  -54.0963 C.3       11 UNK        -0.0953 
      7 S7         33.6405  -45.9717  -55.1550 S.3       11 UNK        -0.2369 
      8 C8         32.9311  -44.4571  -55.8766 C.3       11 UNK         0.0226 
      9 C9         31.6151  -44.0216  -55.2364 C.ar      11 UNK        -0.0699 
     10 C10        31.4423  -43.9926  -53.8463 C.ar      11 UNK        -0.0804 
     11 C11        30.2376  -43.5508  -53.2879 C.ar      11 UNK        -0.0871 
     12 C12        29.2030  -43.1311  -54.1287 C.ar      11 UNK        -0.1008 
     13 C13        29.3602  -43.1557  -55.5172 C.ar      11 UNK        -0.0735 
     14 C14        30.5682  -43.5978  -56.0613 C.ar      11 UNK        -0.0945 
     15 C15        28.2459  -42.6668  -56.4319 C.3       11 UNK         0.0169 
     16 S16        26.7002  -43.5935  -56.1891 S.3       11 UNK        -0.2669 
     17 C17        25.6575  -42.8521  -57.4913 C.3       11 UNK        -0.0850 
     18 CA         25.0458  -43.9132  -58.4535 C.3       10 UNK         0.0855 
     19 C          24.0698  -43.2985  -59.5045 C.2       10 UNK         0.5543 
     20 N          23.1958  -42.3832  -59.0959 N.am      10 UNK        -0.7343 
     21 O          24.0566  -43.6691  -60.6809 O.2       10 UNK        -0.5027 
     22 N          26.0508  -44.8124  -59.0456 N.am      10 UNK        -0.4495 
     23 C          27.0489  -44.4855  -59.8728 C.2       10 UNK         0.4903 
     24 O          27.3374  -43.3279  -60.1830 O.2       10 UNK        -0.4860 
     25 CA         27.8553  -45.6665  -60.4554 C.3       9 UNK         0.0227 
     26 CB         28.8203  -45.2238  -61.5720 C.3       9 UNK        -0.1964 
     27 N          28.6155  -46.4123  -59.4467 N.am      9 UNK        -0.4231 
     28 C          28.1071  -47.2228  -58.5082 C.2       9 UNK         0.5014 
     29 O          26.8968  -47.4060  -58.3469 O.2       9 UNK        -0.5270 
     30 CA         29.1413  -47.9346  -57.6114 C.3       8 UNK         0.0284 
     31 CB         29.8524  -46.9293  -56.6890 C.3       8 UNK        -0.1977 
     32 N          28.5587  -48.9874  -56.7790 N.am      8 UNK        -0.4342 
     33 C          27.9944  -50.1239  -57.2083 C.2       8 UNK         0.5039 
     34 O          27.9608  -50.4737  -58.3895 O.2       8 UNK        -0.5547 
     35 CA         27.3717  -51.0367  -56.1378 C.3       7 UNK         0.0281 
     36 CB         28.3833  -52.1055  -55.6901 C.3       7 UNK        -0.1963 
     37 N          26.9215  -50.2819  -54.9641 N.am      7 UNK        -0.4444 
     38 C          25.6758  -49.8231  -54.7779 C.2       7 UNK         0.5104 
     39 O          24.7505  -50.0211  -55.5659 O.2       7 UNK        -0.5100 
     40 CA         25.3950  -49.0294  -53.4851 C.3       6 UNK         0.0396 
     41 CB         24.7628  -49.9460  -52.4253 C.3       6 UNK        -0.1801 
     42 N          26.5873  -48.3951  -52.9159 N.am      6 UNK        -0.4747 
     43 C          27.1682  -47.2874  -53.4021 C.2       6 UNK         0.5012 
     44 O          26.7068  -46.6374  -54.3375 O.2       6 UNK        -0.5003 
     45 CA         28.5091  -46.8559  -52.7643 C.3       5 UNK         0.0782 
     46 C46        28.2917  -45.7224  -51.7327 C.3       11 UNK        -0.0868 
     47 S47        29.8671  -45.1322  -51.0224 S.3       11 UNK        -0.2515 
     48 C48        30.0632  -43.4873  -51.7767 C.3       11 UNK         0.0199 
     49 N          29.2747  -47.9786  -52.1967 N.am      5 UNK        -0.4607 
     50 C          29.7300  -49.0172  -52.9046 C.2       4 UNK         0.5031 
     51 O          29.4460  -49.2048  -54.0880 O.2       4 UNK        -0.5119 
     52 CA         30.5997  -50.0495  -52.1704 C.3       4 UNK         0.0263 
     53 CB         29.7237  -51.1893  -51.6268 C.3       4 UNK        -0.1967 
     54 N          31.6041  -50.6041  -53.0814 N.am      4 UNK        -0.4237 
     55 C          32.6162  -49.8884  -53.5859 C.2       3 UNK         0.4908 
     56 O          32.9128  -48.7569  -53.1887 O.2       3 UNK        -0.5102 
     57 CA         33.4005  -50.5271  -54.7415 C.3       3 UNK         0.0241 
     58 CB         32.5245  -50.6401  -56.0034 C.3       3 UNK        -0.1971 
     59 N          34.5409  -49.6687  -55.0355 N.am      3 UNK        -0.4139 
     60 C          35.8109  -50.0476  -55.2103 C.2       2 UNK         0.5016 
     61 O          36.1759  -51.2209  -55.2919 O.2       2 UNK        -0.5319 
     62 CA         36.8577  -48.9169  -55.2925 C.3       2 UNK         0.0286 
     63 CB         37.2584  -48.6587  -56.7537 C.3       2 UNK        -0.1963 
     64 N          36.3832  -47.6612  -54.6965 N.am      2 UNK        -0.4790 
     65 C          36.1974  -47.4649  -53.3832 C.2       1 UNK         0.5024 
     66 O          36.5723  -48.2675  -52.5256 O.2       1 UNK        -0.4888 
     67 H67        33.3163  -47.5286  -49.3887 H         1 UNK         0.0892 
     68 H68        32.3881  -46.0346  -49.5420 H         1 UNK         0.0892 
     69 H69        32.2512  -47.2845  -50.7784 H         1 UNK         0.0892 
     70 H70        33.7811  -47.3727  -52.4528 H         1 UNK         0.3107 
     71 H71        36.1757  -45.6244  -52.3640 H         1 UNK         0.0773 
     72 H72        35.7941  -44.9615  -54.7281 H         1 UNK         0.0680 
     73 H73        34.5829  -44.3409  -53.6563 H         1 UNK         0.0680 
     74 H74        32.7833  -44.6472  -56.9406 H         1 UNK         0.0650 
     75 H75        33.6475  -43.6373  -55.8140 H         1 UNK         0.0650 
     76 H76        32.2442  -44.3100  -53.1945 H         1 UNK         0.1397 
     77 H77        28.2719  -42.7786  -53.7061 H         1 UNK         0.1363 
     78 H78        30.6979  -43.6020  -57.1350 H         1 UNK         0.1355 
     79 H79        28.0659  -41.6078  -56.2407 H         1 UNK         0.0707 
     80 H80        28.5439  -42.7505  -57.4785 H         1 UNK         0.0707 
     81 H81        24.8715  -42.2937  -56.9815 H         1 UNK         0.1034 
     82 H82        26.2273  -42.1128  -58.0566 H         1 UNK         0.1034 
     83 H83        24.4192  -44.5717  -57.8509 H         1 UNK         0.0482 
     84 H84        23.1508  -42.0842  -58.1318 H         1 UNK         0.3460 
     85 H85        22.5517  -41.9947  -59.7673 H         1 UNK         0.3460 
     86 H86        25.9635  -45.7955  -58.8031 H         1 UNK         0.2989 
     87 H87        27.1325  -46.3519  -60.9036 H         1 UNK         0.0559 
     88 H88        29.5947  -44.5536  -61.1965 H         1 UNK         0.0848 
     89 H89        28.2858  -44.6932  -62.3614 H         1 UNK         0.0848 
     90 H90        29.3112  -46.0787  -62.0374 H         1 UNK         0.0848 
     91 H91        29.6182  -46.3001  -59.4822 H         1 UNK         0.3144 
     92 H92        29.8843  -48.4046  -58.2586 H         1 UNK         0.0727 
     93 H93        30.4266  -46.2045  -57.2656 H         1 UNK         0.0790 
     94 H94        30.5538  -47.4239  -56.0159 H         1 UNK         0.0790 
     95 H95        29.1400  -46.3712  -56.0793 H         1 UNK         0.0790 
     96 H96        28.6198  -48.8469  -55.7760 H         1 UNK         0.3215 
     97 H97        26.5213  -51.5478  -56.5947 H         1 UNK         0.0863 
     98 H98        29.2647  -51.6608  -55.2277 H         1 UNK         0.0808 
     99 H99        28.7253  -52.6980  -56.5398 H         1 UNK         0.0808 
    100 H100       27.9394  -52.7949  -54.9719 H         1 UNK         0.0808 
    101 H101       27.6429  -50.0132  -54.3046 H         1 UNK         0.3118 
    102 H102       24.6720  -48.2484  -53.7302 H         1 UNK         0.0546 
    103 H103       25.4390  -50.7486  -52.1282 H         1 UNK         0.0828 
    104 H104       23.8528  -50.4121  -52.8060 H         1 UNK         0.0828 
    105 H105       24.4877  -49.3881  -51.5301 H         1 UNK         0.0828 
    106 H106       27.0281  -48.8619  -52.1364 H         1 UNK         0.3005 
    107 H107       29.1124  -46.4461  -53.5786 H         1 UNK         0.1257 
    108 H108       27.6602  -46.0684  -50.9124 H         1 UNK         0.0775 
    109 H109       27.7632  -44.8827  -52.1878 H         1 UNK         0.0775 
    110 H110       29.2079  -42.8653  -51.5079 H         1 UNK         0.0840 
    111 H111       30.9368  -43.0040  -51.3369 H         1 UNK         0.0840 
    112 H112       29.5359  -47.8851  -51.2259 H         1 UNK         0.2987 
    113 H113       31.1122  -49.5629  -51.3378 H         1 UNK         0.0785 
    114 H114       28.9860  -50.8123  -50.9173 H         1 UNK         0.0798 
    115 H115       30.3229  -51.9337  -51.1020 H         1 UNK         0.0798 
    116 H116       29.1792  -51.6984  -52.4236 H         1 UNK         0.0798 
    117 H117       31.4083  -51.5142  -53.4710 H         1 UNK         0.3079 
    118 H118       33.7380  -51.5172  -54.4279 H         1 UNK         0.0794 
    119 H119       31.6890  -51.3228  -55.8475 H         1 UNK         0.0786 
    120 H120       33.0970  -51.0209  -56.8493 H         1 UNK         0.0786 
    121 H121       32.1056  -49.6742  -56.2909 H         1 UNK         0.0786 
    122 H122       34.3542  -48.6822  -54.9087 H         1 UNK         0.3032 
    123 H123       37.7419  -49.2491  -54.7438 H         1 UNK         0.1094 
    124 H124       37.6415  -49.5680  -57.2190 H         1 UNK         0.0794 
    125 H125       36.4117  -48.3191  -57.3513 H         1 UNK         0.0794 
    126 H126       38.0437  -47.9058  -56.8232 H         1 UNK         0.0794 
    127 H127       36.0340  -46.9586  -55.3344 H         1 UNK         0.3016 
@<TRIPOS>BOND
     1    1    2 1    
     2    1   67 1    
     3    1   68 1    
     4    1   69 1    
     5    2    3 2    
     6    2    4 am   BACKBONE|DICT|INTERRES
     7    4    5 1    
     8    4   70 1    
     9    5    6 1    
    10    5   65 1    
    11    5   71 1    
    12    6    7 1    
    13    6   72 1    
    14    6   73 1    
    15    7    8 1    
    16    8    9 1    
    17    8   74 1    
    18    8   75 1    
    19    9   10 ar   
    20    9   14 ar   
    21   10   11 ar   
    22   10   76 1    
    23   11   12 ar   
    24   11   48 1    
    25   12   13 ar   
    26   12   77 1    
    27   13   14 ar   
    28   13   15 1    
    29   14   78 1    
    30   15   16 1    
    31   15   79 1    
    32   15   80 1    
    33   16   17 1    
    34   17   18 1    
    35   17   81 1    
    36   17   82 1    
    37   18   19 1    
    38   18   22 1    
    39   18   83 1    
    40   19   20 am   BACKBONE|DICT|INTERRES
    41   19   21 2    
    42   20   84 1    
    43   20   85 1    
    44   22   23 am   BACKBONE|DICT|INTERRES
    45   22   86 1    
    46   23   24 2    
    47   23   25 1    
    48   25   26 1    
    49   25   27 1    
    50   25   87 1    
    51   26   88 1    
    52   26   89 1    
    53   26   90 1    
    54   27   28 am   BACKBONE|DICT|INTERRES
    55   27   91 1    
    56   28   29 2    
    57   28   30 1    
    58   30   31 1    
    59   30   32 1    
    60   30   92 1    
    61   31   93 1    
    62   31   94 1    
    63   31   95 1    
    64   32   33 am   BACKBONE|DICT|INTERRES
    65   32   96 1    
    66   33   34 2    
    67   33   35 1    
    68   35   36 1    
    69   35   37 1    
    70   35   97 1    
    71   36   98 1    
    72   36   99 1    
    73   36  100 1    
    74   37   38 am   BACKBONE|DICT|INTERRES
    75   37  101 1    
    76   38   39 2    
    77   38   40 1    
    78   40   41 1    
    79   40   42 1    
    80   40  102 1    
    81   41  103 1    
    82   41  104 1    
    83   41  105 1    
    84   42   43 am   BACKBONE|DICT|INTERRES
    85   42  106 1    
    86   43   44 2    
    87   43   45 1    
    88   45   46 1    
    89   45   49 1    
    90   45  107 1    
    91   46   47 1    
    92   46  108 1    
    93   46  109 1    
    94   47   48 1    
    95   48  110 1    
    96   48  111 1    
    97   49   50 am   BACKBONE|DICT|INTERRES
    98   49  112 1    
    99   50   51 2    
   100   50   52 1    
   101   52   53 1    
   102   52   54 1    
   103   52  113 1    
   104   53  114 1    
   105   53  115 1    
   106   53  116 1    
   107   54   55 am   BACKBONE|DICT|INTERRES
   108   54  117 1    
   109   55   56 2    
   110   55   57 1    
   111   57   58 1    
   112   57   59 1    
   113   57  118 1    
   114   58  119 1    
   115   58  120 1    
   116   58  121 1    
   117   59   60 am   BACKBONE|DICT|INTERRES
   118   59  122 1    
   119   60   61 2    
   120   60   62 1    
   121   62   63 1    
   122   62   64 1    
   123   62  123 1    
   124   63  124 1    
   125   63  125 1    
   126   63  126 1    
   127   64   65 am   BACKBONE|DICT|INTERRES
   128   64  127 1    
   129   65   66 2    
@<TRIPOS>SUBSTRUCTURE
     1 UNK         1 GROUP             0       ****    0 ROOT    
