@<TRIPOS>MOLECULE
3R134
127   129    1
SMALL
USER_CHARGES


@<TRIPOS>ATOM
      1 CA         36.8103  -50.5658  -57.0379 C.3       0 UNK        -0.1968 
      2 C          35.6071  -50.0556  -56.2597 C.2       0 UNK         0.4852 
      3 O          35.4419  -50.4135  -55.0923 O.2       0 UNK        -0.5359 
      4 N          34.7768  -49.2098  -56.8913 N.am      1 UNK        -0.4300 
      5 CA         33.5485  -48.6280  -56.3304 C.3       1 UNK         0.0863 
      6 C6         32.8239  -47.7291  -57.3665 C.3       11 UNK        -0.0953 
      7 S7         31.1985  -47.1158  -56.7984 S.3       11 UNK        -0.2369 
      8 C8         31.6051  -45.3838  -56.4073 C.3       11 UNK         0.0226 
      9 C9         30.7263  -44.8466  -55.2897 C.ar      11 UNK        -0.0699 
     10 C10        31.1727  -44.8808  -53.9650 C.ar      11 UNK        -0.0804 
     11 C11        30.3578  -44.4136  -52.9284 C.ar      11 UNK        -0.0871 
     12 C12        29.1043  -43.8732  -53.2308 C.ar      11 UNK        -0.1008 
     13 C13        28.6550  -43.8202  -54.5526 C.ar      11 UNK        -0.0735 
     14 C14        29.4663  -44.3161  -55.5770 C.ar      11 UNK        -0.0945 
     15 C15        27.2852  -43.2463  -54.8717 C.3       11 UNK         0.0169 
     16 S16        26.0029  -44.4993  -54.5928 S.3       11 UNK        -0.2669 
     17 C17        24.6617  -43.9374  -55.6934 C.3       11 UNK        -0.0850 
     18 CA         24.7049  -44.6966  -57.0504 C.3       10 UNK         0.0855 
     19 C          23.3387  -44.7415  -57.8037 C.2       10 UNK         0.5543 
     20 N          23.3260  -44.9078  -59.1217 N.am      10 UNK        -0.7343 
     21 O          22.2766  -44.6618  -57.1912 O.2       10 UNK        -0.5027 
     22 N          25.8504  -44.2887  -57.8816 N.am      10 UNK        -0.4495 
     23 C          25.9802  -43.1356  -58.5561 C.2       10 UNK         0.4903 
     24 O          25.1798  -42.2031  -58.4799 O.2       10 UNK        -0.4860 
     25 CA         27.1974  -42.9891  -59.4931 C.3       9 UNK         0.0227 
     26 CB         28.2273  -42.0150  -58.8970 C.3       9 UNK        -0.1964 
     27 N          27.8622  -44.2560  -59.8131 N.am      9 UNK        -0.4231 
     28 C          27.3186  -45.2769  -60.4913 C.2       9 UNK         0.5014 
     29 O          26.2014  -45.2414  -61.0105 O.2       9 UNK        -0.5270 
     30 CA         28.1329  -46.5837  -60.5477 C.3       8 UNK         0.0284 
     31 CB         29.6581  -46.3726  -60.4002 C.3       8 UNK        -0.1977 
     32 N          27.6540  -47.5666  -59.5650 N.am      8 UNK        -0.4342 
     33 C          27.5494  -47.3945  -58.2388 C.2       8 UNK         0.5039 
     34 O          27.8209  -46.3415  -57.6558 O.2       8 UNK        -0.5547 
     35 CA         27.0569  -48.5957  -57.4241 C.3       7 UNK         0.0281 
     36 CB         28.0891  -49.7401  -57.4327 C.3       7 UNK        -0.1963 
     37 N          26.8324  -48.1553  -56.0510 N.am      7 UNK        -0.4444 
     38 C          26.0121  -48.7247  -55.1628 C.2       7 UNK         0.5104 
     39 O          25.2917  -49.6907  -55.4227 O.2       7 UNK        -0.5100 
     40 CA         26.0145  -48.1146  -53.7440 C.3       6 UNK         0.0396 
     41 CB         25.2991  -49.0044  -52.7047 C.3       6 UNK        -0.1801 
     42 N          27.3612  -47.7437  -53.2766 N.am      6 UNK        -0.4747 
     43 C          28.4064  -48.5735  -53.1156 C.2       6 UNK         0.5012 
     44 O          28.3490  -49.7813  -53.3618 O.2       6 UNK        -0.5003 
     45 CA         29.7357  -47.9321  -52.6469 C.3       5 UNK         0.0782 
     46 C46        29.5865  -47.0727  -51.3579 C.3       11 UNK        -0.0868 
     47 S47        31.1438  -46.2103  -50.9361 S.3       11 UNK        -0.2515 
     48 C48        30.8204  -44.4987  -51.4791 C.3       11 UNK         0.0199 
     49 N          30.8336  -48.9057  -52.5700 N.am      5 UNK        -0.4607 
     50 C          30.9559  -49.9467  -51.7359 C.2       4 UNK         0.5031 
     51 O          30.1753  -50.2002  -50.8173 O.2       4 UNK        -0.5119 
     52 CA         32.1549  -50.8740  -51.9733 C.3       4 UNK         0.0263 
     53 CB         31.9846  -51.6623  -53.2846 C.3       4 UNK        -0.1967 
     54 N          33.4204  -50.1364  -52.0166 N.am      4 UNK        -0.4237 
     55 C          34.4699  -50.3803  -51.2175 C.2       3 UNK         0.4908 
     56 O          34.4438  -51.1960  -50.2941 O.2       3 UNK        -0.5102 
     57 CA         35.7885  -49.6287  -51.4862 C.3       3 UNK         0.0241 
     58 CB         36.9114  -50.6197  -51.8416 C.3       3 UNK        -0.1971 
     59 N          35.6775  -48.6495  -52.5681 N.am      3 UNK        -0.4139 
     60 C          35.4837  -47.3348  -52.3911 C.2       2 UNK         0.5016 
     61 O          35.4267  -46.7959  -51.2854 O.2       2 UNK        -0.5319 
     62 CA         35.3186  -46.4612  -53.6523 C.3       2 UNK         0.0286 
     63 CB         36.6162  -45.6907  -53.9448 C.3       2 UNK        -0.1963 
     64 N          34.9152  -47.1882  -54.8625 N.am      2 UNK        -0.4790 
     65 C          33.7844  -47.8969  -54.9914 C.2       1 UNK         0.5024 
     66 O          32.9689  -48.0356  -54.0821 O.2       1 UNK        -0.4888 
     67 H67        36.8433  -50.1643  -58.0504 H         1 UNK         0.0892 
     68 H68        37.7319  -50.2830  -56.5299 H         1 UNK         0.0892 
     69 H69        36.7781  -51.6529  -57.1046 H         1 UNK         0.0892 
     70 H70        34.9791  -48.9560  -57.8481 H         1 UNK         0.3107 
     71 H71        32.8895  -49.4702  -56.1091 H         1 UNK         0.0773 
     72 H72        32.6450  -48.2988  -58.2797 H         1 UNK         0.0680 
     73 H73        33.4559  -46.8898  -57.6620 H         1 UNK         0.0680 
     74 H74        31.4872  -44.7775  -57.3066 H         1 UNK         0.0650 
     75 H75        32.6526  -45.2988  -56.1150 H         1 UNK         0.0650 
     76 H76        32.1403  -45.3044  -53.7340 H         1 UNK         0.1397 
     77 H77        28.4671  -43.5050  -52.4380 H         1 UNK         0.1363 
     78 H78        29.1126  -44.3040  -56.5982 H         1 UNK         0.1355 
     79 H79        27.2576  -42.8999  -55.9042 H         1 UNK         0.0707 
     80 H80        27.0832  -42.3742  -54.2482 H         1 UNK         0.0707 
     81 H81        23.7279  -44.1317  -55.1634 H         1 UNK         0.1034 
     82 H82        24.7044  -42.8569  -55.8377 H         1 UNK         0.1034 
     83 H83        24.8888  -45.7472  -56.8214 H         1 UNK         0.0482 
     84 H84        24.1917  -44.9811  -59.6374 H         1 UNK         0.3460 
     85 H85        22.4437  -44.9480  -59.6067 H         1 UNK         0.3460 
     86 H86        26.5941  -44.9800  -57.9541 H         1 UNK         0.2989 
     87 H87        26.8307  -42.5648  -60.4299 H         1 UNK         0.0559 
     88 H88        29.0476  -41.8302  -59.5909 H         1 UNK         0.0848 
     89 H89        28.6525  -42.3904  -57.9664 H         1 UNK         0.0848 
     90 H90        27.7697  -41.0493  -58.6775 H         1 UNK         0.0848 
     91 H91        28.7588  -44.4191  -59.3786 H         1 UNK         0.3144 
     92 H92        27.9550  -47.0132  -61.5349 H         1 UNK         0.0727 
     93 H93        30.0277  -45.6458  -61.1249 H         1 UNK         0.0790 
     94 H94        30.1974  -47.3030  -60.5781 H         1 UNK         0.0790 
     95 H95        29.9384  -46.0235  -59.4060 H         1 UNK         0.0790 
     96 H96        27.3660  -48.4549  -59.9518 H         1 UNK         0.3215 
     97 H97        26.1138  -48.9382  -57.8550 H         1 UNK         0.0863 
     98 H98        29.0464  -49.4172  -57.0209 H         1 UNK         0.0808 
     99 H99        28.2737  -50.1051  -58.4434 H         1 UNK         0.0808 
    100 H100       27.7450  -50.5896  -56.8425 H         1 UNK         0.0808 
    101 H101       27.3394  -47.3121  -55.8060 H         1 UNK         0.3118 
    102 H102       25.4425  -47.1904  -53.8137 H         1 UNK         0.0546 
    103 H103       25.7704  -49.9834  -52.6138 H         1 UNK         0.0828 
    104 H104       24.2583  -49.1714  -52.9846 H         1 UNK         0.0828 
    105 H105       25.2969  -48.5399  -51.7188 H         1 UNK         0.0828 
    106 H106       27.4968  -46.7567  -53.1025 H         1 UNK         0.3005 
    107 H107       30.0168  -47.2666  -53.4628 H         1 UNK         0.1257 
    108 H108       29.2988  -47.6966  -50.5105 H         1 UNK         0.0775 
    109 H109       28.7943  -46.3304  -51.4616 H         1 UNK         0.0775 
    110 H110       30.0837  -44.0536  -50.8084 H         1 UNK         0.0840 
    111 H111       31.7331  -43.9132  -51.3618 H         1 UNK         0.0840 
    112 H112       31.5687  -48.7473  -53.2545 H         1 UNK         0.2987 
    113 H113       32.1605  -51.5966  -51.1545 H         1 UNK         0.0785 
    114 H114       31.0357  -52.2004  -53.2968 H         1 UNK         0.0798 
    115 H115       32.7786  -52.3991  -53.4066 H         1 UNK         0.0798 
    116 H116       32.0012  -51.0090  -54.1578 H         1 UNK         0.0798 
    117 H117       33.4927  -49.4014  -52.7116 H         1 UNK         0.3079 
    118 H118       36.0663  -49.1283  -50.5561 H         1 UNK         0.0794 
    119 H119       37.0704  -51.3393  -51.0374 H         1 UNK         0.0786 
    120 H120       37.8582  -50.1044  -52.0040 H         1 UNK         0.0786 
    121 H121       36.6785  -51.1860  -52.7443 H         1 UNK         0.0786 
    122 H122       35.6874  -49.0247  -53.5114 H         1 UNK         0.3032 
    123 H123       34.5336  -45.7360  -53.4282 H         1 UNK         0.1094 
    124 H124       36.9320  -45.1122  -53.0753 H         1 UNK         0.0794 
    125 H125       37.4350  -46.3634  -54.2031 H         1 UNK         0.0794 
    126 H126       36.4847  -44.9872  -54.7672 H         1 UNK         0.0794 
    127 H127       35.5477  -47.1493  -55.6490 H         1 UNK         0.3016 
@<TRIPOS>BOND
     1    1    2 1    
     2    1   67 1    
     3    1   68 1    
     4    1   69 1    
     5    2    3 2    
     6    2    4 am   BACKBONE|DICT|INTERRES
     7    4    5 1    
     8    4   70 1    
     9    5    6 1    
    10    5   65 1    
    11    5   71 1    
    12    6    7 1    
    13    6   72 1    
    14    6   73 1    
    15    7    8 1    
    16    8    9 1    
    17    8   74 1    
    18    8   75 1    
    19    9   10 ar   
    20    9   14 ar   
    21   10   11 ar   
    22   10   76 1    
    23   11   12 ar   
    24   11   48 1    
    25   12   13 ar   
    26   12   77 1    
    27   13   14 ar   
    28   13   15 1    
    29   14   78 1    
    30   15   16 1    
    31   15   79 1    
    32   15   80 1    
    33   16   17 1    
    34   17   18 1    
    35   17   81 1    
    36   17   82 1    
    37   18   19 1    
    38   18   22 1    
    39   18   83 1    
    40   19   20 am   BACKBONE|DICT|INTERRES
    41   19   21 2    
    42   20   84 1    
    43   20   85 1    
    44   22   23 am   BACKBONE|DICT|INTERRES
    45   22   86 1    
    46   23   24 2    
    47   23   25 1    
    48   25   26 1    
    49   25   27 1    
    50   25   87 1    
    51   26   88 1    
    52   26   89 1    
    53   26   90 1    
    54   27   28 am   BACKBONE|DICT|INTERRES
    55   27   91 1    
    56   28   29 2    
    57   28   30 1    
    58   30   31 1    
    59   30   32 1    
    60   30   92 1    
    61   31   93 1    
    62   31   94 1    
    63   31   95 1    
    64   32   33 am   BACKBONE|DICT|INTERRES
    65   32   96 1    
    66   33   34 2    
    67   33   35 1    
    68   35   36 1    
    69   35   37 1    
    70   35   97 1    
    71   36   98 1    
    72   36   99 1    
    73   36  100 1    
    74   37   38 am   BACKBONE|DICT|INTERRES
    75   37  101 1    
    76   38   39 2    
    77   38   40 1    
    78   40   41 1    
    79   40   42 1    
    80   40  102 1    
    81   41  103 1    
    82   41  104 1    
    83   41  105 1    
    84   42   43 am   BACKBONE|DICT|INTERRES
    85   42  106 1    
    86   43   44 2    
    87   43   45 1    
    88   45   46 1    
    89   45   49 1    
    90   45  107 1    
    91   46   47 1    
    92   46  108 1    
    93   46  109 1    
    94   47   48 1    
    95   48  110 1    
    96   48  111 1    
    97   49   50 am   BACKBONE|DICT|INTERRES
    98   49  112 1    
    99   50   51 2    
   100   50   52 1    
   101   52   53 1    
   102   52   54 1    
   103   52  113 1    
   104   53  114 1    
   105   53  115 1    
   106   53  116 1    
   107   54   55 am   BACKBONE|DICT|INTERRES
   108   54  117 1    
   109   55   56 2    
   110   55   57 1    
   111   57   58 1    
   112   57   59 1    
   113   57  118 1    
   114   58  119 1    
   115   58  120 1    
   116   58  121 1    
   117   59   60 am   BACKBONE|DICT|INTERRES
   118   59  122 1    
   119   60   61 2    
   120   60   62 1    
   121   62   63 1    
   122   62   64 1    
   123   62  123 1    
   124   63  124 1    
   125   63  125 1    
   126   63  126 1    
   127   64   65 am   BACKBONE|DICT|INTERRES
   128   64  127 1    
   129   65   66 2    
@<TRIPOS>SUBSTRUCTURE
     1 UNK         1 GROUP             0       ****    0 ROOT    
