@<TRIPOS>MOLECULE
3R134
127   129    1
SMALL
USER_CHARGES


@<TRIPOS>ATOM
      1 CA         38.6586  -43.9017  -53.3408 C.3       0 UNK        -0.1968 
      2 C          37.8900  -45.1525  -53.7403 C.2       0 UNK         0.4852 
      3 O          38.2752  -46.2568  -53.3553 O.2       0 UNK        -0.5359 
      4 N          36.7979  -44.9880  -54.4980 N.am      1 UNK        -0.4300 
      5 CA         35.9332  -46.0686  -54.9910 C.3       1 UNK         0.0863 
      6 C6         35.3148  -45.7079  -56.3698 C.3       11 UNK        -0.0953 
      7 S7         34.1645  -44.2849  -56.3291 S.3       11 UNK        -0.2369 
      8 C8         32.5594  -45.1012  -56.6128 C.3       11 UNK         0.0226 
      9 C9         31.4724  -44.4879  -55.7457 C.ar      11 UNK        -0.0699 
     10 C10        31.2911  -44.9362  -54.4351 C.ar      11 UNK        -0.0804 
     11 C11        30.2993  -44.3830  -53.6194 C.ar      11 UNK        -0.0871 
     12 C12        29.4868  -43.3651  -54.1301 C.ar      11 UNK        -0.1008 
     13 C13        29.6527  -42.9125  -55.4434 C.ar      11 UNK        -0.0735 
     14 C14        30.6476  -43.4780  -56.2468 C.ar      11 UNK        -0.0945 
     15 C15        28.7771  -41.7965  -55.9938 C.3       11 UNK         0.0169 
     16 S16        27.3491  -42.4466  -56.9172 S.3       11 UNK        -0.2669 
     17 C17        26.2148  -42.9377  -55.5714 C.3       11 UNK        -0.0850 
     18 CA         26.2061  -44.4702  -55.2968 C.3       10 UNK         0.0855 
     19 C          25.3789  -44.8509  -54.0335 C.2       10 UNK         0.5543 
     20 N          24.6862  -45.9832  -54.0127 N.am      10 UNK        -0.7343 
     21 O          25.3938  -44.1289  -53.0399 O.2       10 UNK        -0.5027 
     22 N          25.9228  -45.2958  -56.4827 N.am      10 UNK        -0.4495 
     23 C          24.8443  -45.2431  -57.2764 C.2       10 UNK         0.4903 
     24 O          23.9047  -44.4654  -57.1057 O.2       10 UNK        -0.4860 
     25 CA         24.7847  -46.2580  -58.4393 C.3       9 UNK         0.0227 
     26 CB         24.0435  -45.7067  -59.6759 C.3       9 UNK        -0.1964 
     27 N          26.0949  -46.8187  -58.7992 N.am      9 UNK        -0.4231 
     28 C          27.1521  -46.1774  -59.3271 C.2       9 UNK         0.5014 
     29 O          27.1188  -45.0128  -59.7246 O.2       9 UNK        -0.5270 
     30 CA         28.4872  -46.9459  -59.3980 C.3       8 UNK         0.0284 
     31 CB         29.5925  -46.1801  -58.6471 C.3       8 UNK        -0.1977 
     32 N          28.3825  -48.2884  -58.8215 N.am      8 UNK        -0.4342 
     33 C          28.1892  -49.4179  -59.5158 C.2       8 UNK         0.5039 
     34 O          28.1598  -49.4696  -60.7457 O.2       8 UNK        -0.5547 
     35 CA         27.9616  -50.7085  -58.7047 C.3       7 UNK         0.0281 
     36 CB         29.2720  -51.5020  -58.5793 C.3       7 UNK        -0.1963 
     37 N          27.4046  -50.4646  -57.3684 N.am      7 UNK        -0.4444 
     38 C          26.1684  -49.9915  -57.1426 C.2       7 UNK         0.5104 
     39 O          25.3617  -49.7519  -58.0402 O.2       7 UNK        -0.5100 
     40 CA         25.7759  -49.6578  -55.6900 C.3       6 UNK         0.0396 
     41 CB         25.0280  -50.8390  -55.0538 C.3       6 UNK        -0.1801 
     42 N          26.9010  -49.2783  -54.8310 N.am      6 UNK        -0.4747 
     43 C          27.7618  -48.2770  -55.0665 C.2       6 UNK         0.5012 
     44 O          27.6721  -47.5189  -56.0329 O.2       6 UNK        -0.5003 
     45 CA         28.9526  -48.1296  -54.0991 C.3       5 UNK         0.0782 
     46 C46        28.6074  -47.1065  -52.9904 C.3       11 UNK        -0.0868 
     47 S47        30.0694  -46.6678  -51.9923 S.3       11 UNK        -0.2515 
     48 C48        30.1198  -44.8515  -52.1776 C.3       11 UNK         0.0199 
     49 N          29.4296  -49.4004  -53.5269 N.am      5 UNK        -0.4607 
     50 C          29.7598  -50.5184  -54.1923 C.2       4 UNK         0.5031 
     51 O          29.6080  -50.6648  -55.4060 O.2       4 UNK        -0.5119 
     52 CA         30.3541  -51.6593  -53.3394 C.3       4 UNK         0.0263 
     53 CB         30.8629  -52.8434  -54.1903 C.3       4 UNK        -0.1967 
     54 N          31.3976  -51.1839  -52.4171 N.am      4 UNK        -0.4237 
     55 C          32.5330  -50.5550  -52.7564 C.2       3 UNK         0.4908 
     56 O          32.9023  -50.3618  -53.9165 O.2       3 UNK        -0.5102 
     57 CA         33.3990  -50.0279  -51.6092 C.3       3 UNK         0.0241 
     58 CB         34.7026  -50.8327  -51.4637 C.3       3 UNK        -0.1971 
     59 N          33.6917  -48.6349  -51.9178 N.am      3 UNK        -0.4139 
     60 C          33.9217  -47.6538  -51.0437 C.2       2 UNK         0.5016 
     61 O          34.0523  -47.8423  -49.8325 O.2       2 UNK        -0.5319 
     62 CA         33.9929  -46.2214  -51.6192 C.3       2 UNK         0.0286 
     63 CB         34.2712  -45.1605  -50.5380 C.3       2 UNK        -0.1963 
     64 N          34.9607  -46.0421  -52.7085 N.am      2 UNK        -0.4790 
     65 C          34.8677  -46.5168  -53.9603 C.2       1 UNK         0.5024 
     66 O          33.9610  -47.2649  -54.3250 O.2       1 UNK        -0.4888 
     67 H67        38.6924  -43.8119  -52.2554 H         1 UNK         0.0892 
     68 H68        39.6823  -43.9574  -53.7101 H         1 UNK         0.0892 
     69 H69        38.2028  -42.9967  -53.7422 H         1 UNK         0.0892 
     70 H70        36.5135  -44.0569  -54.7704 H         1 UNK         0.3107 
     71 H71        36.5600  -46.9478  -55.1557 H         1 UNK         0.0773 
     72 H72        36.1148  -45.4628  -57.0700 H         1 UNK         0.0680 
     73 H73        34.8204  -46.5784  -56.8041 H         1 UNK         0.0680 
     74 H74        32.6219  -46.1686  -56.3987 H         1 UNK         0.0650 
     75 H75        32.3012  -45.0179  -57.6693 H         1 UNK         0.0650 
     76 H76        31.9258  -45.7201  -54.0512 H         1 UNK         0.1397 
     77 H77        28.7232  -42.9216  -53.5058 H         1 UNK         0.1363 
     78 H78        30.7814  -43.1285  -57.2614 H         1 UNK         0.1355 
     79 H79        28.4385  -41.1376  -55.1928 H         1 UNK         0.0707 
     80 H80        29.3673  -41.1709  -56.6652 H         1 UNK         0.0707 
     81 H81        25.2124  -42.5919  -55.8266 H         1 UNK         0.1034 
     82 H82        26.4867  -42.3893  -54.6683 H         1 UNK         0.1034 
     83 H83        27.2267  -44.7421  -55.0320 H         1 UNK         0.0482 
     84 H84        24.6688  -46.5823  -54.8207 H         1 UNK         0.3460 
     85 H85        24.1615  -46.2262  -53.1875 H         1 UNK         0.3460 
     86 H86        26.6143  -46.0173  -56.6597 H         1 UNK         0.2989 
     87 H87        24.2022  -47.1003  -58.0636 H         1 UNK         0.0559 
     88 H88        24.5100  -44.7982  -60.0578 H         1 UNK         0.0848 
     89 H89        23.0095  -45.4592  -59.4333 H         1 UNK         0.0848 
     90 H90        24.0186  -46.4380  -60.4836 H         1 UNK         0.0848 
     91 H91        26.2178  -47.7926  -58.5512 H         1 UNK         0.3144 
     92 H92        28.7712  -47.0104  -60.4504 H         1 UNK         0.0727 
     93 H93        30.5436  -46.7105  -58.6921 H         1 UNK         0.0790 
     94 H94        29.3408  -46.0304  -57.5962 H         1 UNK         0.0790 
     95 H95        29.7525  -45.1931  -59.0831 H         1 UNK         0.0790 
     96 H96        28.3607  -48.3291  -57.8080 H         1 UNK         0.3215 
     97 H97        27.2455  -51.3202  -59.2580 H         1 UNK         0.0863 
     98 H98        30.0424  -50.9296  -58.0611 H         1 UNK         0.0808 
     99 H99        29.6661  -51.7609  -59.5629 H         1 UNK         0.0808 
    100 H100       29.1232  -52.4339  -58.0335 H         1 UNK         0.0808 
    101 H101       28.0368  -50.5978  -56.5823 H         1 UNK         0.3118 
    102 H102       25.0959  -48.8046  -55.7276 H         1 UNK         0.0546 
    103 H103       24.6518  -50.5847  -54.0627 H         1 UNK         0.0828 
    104 H104       25.6677  -51.7171  -54.9568 H         1 UNK         0.0828 
    105 H105       24.1676  -51.1282  -55.6592 H         1 UNK         0.0828 
    106 H106       27.0654  -49.8570  -54.0199 H         1 UNK         0.3005 
    107 H107       29.7750  -47.7258  -54.6943 H         1 UNK         0.1257 
    108 H108       27.8393  -47.5029  -52.3235 H         1 UNK         0.0775 
    109 H109       28.1880  -46.1963  -53.4206 H         1 UNK         0.0775 
    110 H110       29.2065  -44.4364  -51.7478 H         1 UNK         0.0840 
    111 H111       30.9437  -44.4606  -51.5793 H         1 UNK         0.0840 
    112 H112       29.6026  -49.3777  -52.5326 H         1 UNK         0.2987 
    113 H113       29.5372  -52.0311  -52.7190 H         1 UNK         0.0785 
    114 H114       31.2570  -53.6428  -53.5631 H         1 UNK         0.0798 
    115 H115       30.0559  -53.2687  -54.7882 H         1 UNK         0.0798 
    116 H116       31.6500  -52.5394  -54.8811 H         1 UNK         0.0798 
    117 H117       31.1923  -51.2982  -51.4335 H         1 UNK         0.3079 
    118 H118       32.8350  -50.0794  -50.6752 H         1 UNK         0.0794 
    119 H119       34.4917  -51.8817  -51.2525 H         1 UNK         0.0786 
    120 H120       35.3139  -50.4523  -50.6451 H         1 UNK         0.0786 
    121 H121       35.3022  -50.7948  -52.3743 H         1 UNK         0.0786 
    122 H122       33.6172  -48.3887  -52.9052 H         1 UNK         0.3032 
    123 H123       33.0018  -46.0130  -52.0227 H         1 UNK         0.1094 
    124 H124       35.2538  -45.2958  -50.0843 H         1 UNK         0.0794 
    125 H125       34.2251  -44.1519  -50.9493 H         1 UNK         0.0794 
    126 H126       33.5313  -45.2126  -49.7379 H         1 UNK         0.0794 
    127 H127       35.7655  -45.4714  -52.4951 H         1 UNK         0.3016 
@<TRIPOS>BOND
     1    1    2 1    
     2    1   67 1    
     3    1   68 1    
     4    1   69 1    
     5    2    3 2    
     6    2    4 am   BACKBONE|DICT|INTERRES
     7    4    5 1    
     8    4   70 1    
     9    5    6 1    
    10    5   65 1    
    11    5   71 1    
    12    6    7 1    
    13    6   72 1    
    14    6   73 1    
    15    7    8 1    
    16    8    9 1    
    17    8   74 1    
    18    8   75 1    
    19    9   10 ar   
    20    9   14 ar   
    21   10   11 ar   
    22   10   76 1    
    23   11   12 ar   
    24   11   48 1    
    25   12   13 ar   
    26   12   77 1    
    27   13   14 ar   
    28   13   15 1    
    29   14   78 1    
    30   15   16 1    
    31   15   79 1    
    32   15   80 1    
    33   16   17 1    
    34   17   18 1    
    35   17   81 1    
    36   17   82 1    
    37   18   19 1    
    38   18   22 1    
    39   18   83 1    
    40   19   20 am   BACKBONE|DICT|INTERRES
    41   19   21 2    
    42   20   84 1    
    43   20   85 1    
    44   22   23 am   BACKBONE|DICT|INTERRES
    45   22   86 1    
    46   23   24 2    
    47   23   25 1    
    48   25   26 1    
    49   25   27 1    
    50   25   87 1    
    51   26   88 1    
    52   26   89 1    
    53   26   90 1    
    54   27   28 am   BACKBONE|DICT|INTERRES
    55   27   91 1    
    56   28   29 2    
    57   28   30 1    
    58   30   31 1    
    59   30   32 1    
    60   30   92 1    
    61   31   93 1    
    62   31   94 1    
    63   31   95 1    
    64   32   33 am   BACKBONE|DICT|INTERRES
    65   32   96 1    
    66   33   34 2    
    67   33   35 1    
    68   35   36 1    
    69   35   37 1    
    70   35   97 1    
    71   36   98 1    
    72   36   99 1    
    73   36  100 1    
    74   37   38 am   BACKBONE|DICT|INTERRES
    75   37  101 1    
    76   38   39 2    
    77   38   40 1    
    78   40   41 1    
    79   40   42 1    
    80   40  102 1    
    81   41  103 1    
    82   41  104 1    
    83   41  105 1    
    84   42   43 am   BACKBONE|DICT|INTERRES
    85   42  106 1    
    86   43   44 2    
    87   43   45 1    
    88   45   46 1    
    89   45   49 1    
    90   45  107 1    
    91   46   47 1    
    92   46  108 1    
    93   46  109 1    
    94   47   48 1    
    95   48  110 1    
    96   48  111 1    
    97   49   50 am   BACKBONE|DICT|INTERRES
    98   49  112 1    
    99   50   51 2    
   100   50   52 1    
   101   52   53 1    
   102   52   54 1    
   103   52  113 1    
   104   53  114 1    
   105   53  115 1    
   106   53  116 1    
   107   54   55 am   BACKBONE|DICT|INTERRES
   108   54  117 1    
   109   55   56 2    
   110   55   57 1    
   111   57   58 1    
   112   57   59 1    
   113   57  118 1    
   114   58  119 1    
   115   58  120 1    
   116   58  121 1    
   117   59   60 am   BACKBONE|DICT|INTERRES
   118   59  122 1    
   119   60   61 2    
   120   60   62 1    
   121   62   63 1    
   122   62   64 1    
   123   62  123 1    
   124   63  124 1    
   125   63  125 1    
   126   63  126 1    
   127   64   65 am   BACKBONE|DICT|INTERRES
   128   64  127 1    
   129   65   66 2    
@<TRIPOS>SUBSTRUCTURE
     1 UNK         1 GROUP             0       ****    0 ROOT    
