@<TRIPOS>MOLECULE
3R134
127   129    1
SMALL
USER_CHARGES


@<TRIPOS>ATOM
      1 CA         31.7769  -47.5101  -48.7103 C.3       0 UNK        -0.1968 
      2 C          32.3828  -47.4360  -50.1032 C.2       0 UNK         0.4852 
      3 O          32.1628  -48.3395  -50.9117 O.2       0 UNK        -0.5359 
      4 N          33.1304  -46.3613  -50.3961 N.am      1 UNK        -0.4300 
      5 CA         33.7948  -46.1166  -51.6838 C.3       1 UNK         0.0863 
      6 C6         34.7082  -44.8649  -51.6452 C.3       11 UNK        -0.0953 
      7 S7         33.8305  -43.3004  -51.2812 S.3       11 UNK        -0.2369 
      8 C8         34.3468  -42.2299  -52.6628 C.3       11 UNK         0.0226 
      9 C9         33.7310  -42.6310  -53.9985 C.ar      11 UNK        -0.0699 
     10 C10        34.4812  -43.3537  -54.9303 C.ar      11 UNK        -0.0804 
     11 C11        33.9444  -43.6792  -56.1788 C.ar      11 UNK        -0.0871 
     12 C12        32.6472  -43.2669  -56.4996 C.ar      11 UNK        -0.1008 
     13 C13        31.8809  -42.5462  -55.5768 C.ar      11 UNK        -0.0735 
     14 C14        32.4300  -42.2350  -54.3265 C.ar      11 UNK        -0.0945 
     15 C15        30.4771  -42.0669  -55.9343 C.3       11 UNK         0.0169 
     16 S16        29.3843  -43.4100  -56.5102 S.3       11 UNK        -0.2669 
     17 C17        27.7524  -42.6790  -56.1316 C.3       11 UNK        -0.0850 
     18 CA         26.5439  -43.6085  -56.4330 C.3       10 UNK         0.0855 
     19 C          26.1567  -43.6315  -57.9426 C.2       10 UNK         0.5543 
     20 N          25.9159  -44.7845  -58.5529 N.am      10 UNK        -0.7343 
     21 O          26.0480  -42.5792  -58.5675 O.2       10 UNK        -0.5027 
     22 N          26.7092  -44.9274  -55.7974 N.am      10 UNK        -0.4495 
     23 C          25.7194  -45.7340  -55.3978 C.2       10 UNK         0.4903 
     24 O          24.5240  -45.4637  -55.5131 O.2       10 UNK        -0.4860 
     25 CA         26.1611  -47.0553  -54.7476 C.3       9 UNK         0.0227 
     26 CB         25.7259  -47.1552  -53.2725 C.3       9 UNK        -0.1964 
     27 N          25.7668  -48.2276  -55.5352 N.am      9 UNK        -0.4231 
     28 C          24.5528  -48.7745  -55.7057 C.2       9 UNK         0.5014 
     29 O          23.5275  -48.3957  -55.1389 O.2       9 UNK        -0.5270 
     30 CA         24.4578  -49.9607  -56.6878 C.3       8 UNK         0.0284 
     31 CB         23.6756  -49.5529  -57.9479 C.3       8 UNK        -0.1977 
     32 N          25.7634  -50.4864  -57.0987 N.am      8 UNK        -0.4342 
     33 C          26.5509  -51.2887  -56.3730 C.2       8 UNK         0.5039 
     34 O          26.2345  -51.7396  -55.2723 O.2       8 UNK        -0.5547 
     35 CA         27.9401  -51.6103  -56.9557 C.3       7 UNK         0.0281 
     36 CB         27.8542  -52.6566  -58.0854 C.3       7 UNK        -0.1963 
     37 N          28.7020  -50.4135  -57.3596 N.am      7 UNK        -0.4444 
     38 C          28.4441  -49.5698  -58.3706 C.2       7 UNK         0.5104 
     39 O          27.5031  -49.7192  -59.1515 O.2       7 UNK        -0.5100 
     40 CA         29.3170  -48.3152  -58.5236 C.3       6 UNK         0.0396 
     41 CB         28.4851  -47.0571  -58.2320 C.3       6 UNK        -0.1801 
     42 N          30.5149  -48.2927  -57.6787 N.am      6 UNK        -0.4747 
     43 C          31.7220  -48.6817  -58.1139 C.2       6 UNK         0.5012 
     44 O          31.9001  -49.3002  -59.1646 O.2       6 UNK        -0.5003 
     45 CA         32.9430  -48.2587  -57.2768 C.3       5 UNK         0.0782 
     46 C46        33.1428  -46.7244  -57.3420 C.3       11 UNK        -0.0868 
     47 S47        34.8155  -46.2346  -56.8140 S.3       11 UNK        -0.2515 
     48 C48        34.7835  -44.4530  -57.1853 C.3       11 UNK         0.0199 
     49 N          32.8589  -48.7507  -55.9020 N.am      5 UNK        -0.4607 
     50 C          33.0549  -50.0249  -55.5406 C.2       4 UNK         0.5031 
     51 O          33.3670  -50.9202  -56.3263 O.2       4 UNK        -0.5119 
     52 CA         32.8566  -50.3674  -54.0525 C.3       4 UNK         0.0263 
     53 CB         34.1236  -50.0456  -53.2442 C.3       4 UNK        -0.1967 
     54 N          31.7009  -49.6935  -53.4535 N.am      4 UNK        -0.4237 
     55 C          30.4348  -49.8637  -53.8622 C.2       3 UNK         0.4908 
     56 O          30.1048  -50.6312  -54.7638 O.2       3 UNK        -0.5102 
     57 CA         29.3565  -49.0053  -53.1870 C.3       3 UNK         0.0241 
     58 CB         28.9349  -49.6022  -51.8353 C.3       3 UNK        -0.1971 
     59 N          29.7953  -47.6226  -53.0075 N.am      3 UNK        -0.4139 
     60 C          29.9923  -46.7565  -54.0107 C.2       2 UNK         0.5016 
     61 O          29.7784  -47.0110  -55.1960 O.2       2 UNK        -0.5319 
     62 CA         30.5476  -45.3817  -53.6210 C.3       2 UNK         0.0286 
     63 CB         29.4369  -44.4826  -53.0537 C.3       2 UNK        -0.1963 
     64 N          31.6389  -45.4655  -52.6537 N.am      2 UNK        -0.4790 
     65 C          32.8093  -46.0829  -52.8693 C.2       1 UNK         0.5024 
     66 O          33.0975  -46.6607  -53.9152 O.2       1 UNK        -0.4888 
     67 H67        30.6910  -47.5698  -48.7769 H         1 UNK         0.0892 
     68 H68        32.1359  -48.4000  -48.1943 H         1 UNK         0.0892 
     69 H69        32.0335  -46.6401  -48.1062 H         1 UNK         0.0892 
     70 H70        33.2656  -45.6440  -49.6975 H         1 UNK         0.3107 
     71 H71        34.4449  -46.9771  -51.8550 H         1 UNK         0.0773 
     72 H72        35.4727  -44.9985  -50.8785 H         1 UNK         0.0680 
     73 H73        35.2580  -44.7765  -52.5826 H         1 UNK         0.0680 
     74 H74        35.4361  -42.2267  -52.7266 H         1 UNK         0.0650 
     75 H75        34.0580  -41.2039  -52.4303 H         1 UNK         0.0650 
     76 H76        35.4904  -43.6589  -54.6903 H         1 UNK         0.1397 
     77 H77        32.2301  -43.5061  -57.4684 H         1 UNK         0.1363 
     78 H78        31.8523  -41.6689  -53.6087 H         1 UNK         0.1355 
     79 H79        30.5459  -41.3065  -56.7131 H         1 UNK         0.0707 
     80 H80        30.0198  -41.5825  -55.0703 H         1 UNK         0.0707 
     81 H81        27.7390  -42.4257  -55.0705 H         1 UNK         0.1034 
     82 H82        27.6573  -41.7253  -56.6547 H         1 UNK         0.1034 
     83 H83        25.6832  -43.1394  -55.9523 H         1 UNK         0.0482 
     84 H84        25.6560  -44.7818  -59.5263 H         1 UNK         0.3460 
     85 H85        25.9526  -45.6470  -58.0378 H         1 UNK         0.3460 
     86 H86        27.6681  -45.2324  -55.7029 H         1 UNK         0.2989 
     87 H87        27.2477  -47.0760  -54.7487 H         1 UNK         0.0559 
     88 H88        24.6439  -47.0844  -53.1586 H         1 UNK         0.0848 
     89 H89        26.1640  -46.3470  -52.6857 H         1 UNK         0.0848 
     90 H90        26.0508  -48.0943  -52.8250 H         1 UNK         0.0848 
     91 H91        26.5129  -48.6555  -56.0623 H         1 UNK         0.3144 
     92 H92        23.9062  -50.7573  -56.1840 H         1 UNK         0.0727 
     93 H93        24.1830  -48.7598  -58.4989 H         1 UNK         0.0790 
     94 H94        22.6809  -49.1863  -57.6905 H         1 UNK         0.0790 
     95 H95        23.5422  -50.3985  -58.6230 H         1 UNK         0.0790 
     96 H96        26.1325  -50.1741  -57.9958 H         1 UNK         0.3215 
     97 H97        28.5126  -52.0704  -56.1497 H         1 UNK         0.0863 
     98 H98        28.8448  -52.9172  -58.4579 H         1 UNK         0.0808 
     99 H99        27.2590  -52.3102  -58.9303 H         1 UNK         0.0808 
    100 H100       27.3922  -53.5763  -57.7242 H         1 UNK         0.0808 
    101 H101       29.4715  -50.1849  -56.7381 H         1 UNK         0.3118 
    102 H102       29.6126  -48.2650  -59.5738 H         1 UNK         0.0546 
    103 H103       27.6421  -46.9844  -58.9197 H         1 UNK         0.0828 
    104 H104       29.0765  -46.1489  -58.3509 H         1 UNK         0.0828 
    105 H105       28.0851  -47.0652  -57.2198 H         1 UNK         0.0828 
    106 H106       30.4266  -47.8183  -56.7810 H         1 UNK         0.3005 
    107 H107       33.8121  -48.7272  -57.7452 H         1 UNK         0.1257 
    108 H108       32.4059  -46.2113  -56.7201 H         1 UNK         0.0775 
    109 H109       33.0001  -46.3557  -58.3600 H         1 UNK         0.0775 
    110 H110       35.8064  -44.0739  -57.1708 H         1 UNK         0.0840 
    111 H111       34.4181  -44.2939  -58.2010 H         1 UNK         0.0840 
    112 H112       32.6926  -48.0526  -55.1819 H         1 UNK         0.2987 
    113 H113       32.6759  -51.4422  -53.9844 H         1 UNK         0.0785 
    114 H114       34.3699  -48.9848  -53.2860 H         1 UNK         0.0798 
    115 H115       34.9825  -50.5943  -53.6327 H         1 UNK         0.0798 
    116 H116       34.0076  -50.3216  -52.1959 H         1 UNK         0.0798 
    117 H117       31.8832  -49.0736  -52.6673 H         1 UNK         0.3079 
    118 H118       28.4820  -49.0020  -53.8408 H         1 UNK         0.0794 
    119 H119       29.7632  -49.6317  -51.1265 H         1 UNK         0.0786 
    120 H120       28.5751  -50.6246  -51.9590 H         1 UNK         0.0786 
    121 H121       28.1264  -49.0277  -51.3832 H         1 UNK         0.0786 
    122 H122       30.0571  -47.3431  -52.0733 H         1 UNK         0.3032 
    123 H123       30.9465  -44.9296  -54.5300 H         1 UNK         0.1094 
    124 H124       29.7911  -43.4610  -52.9157 H         1 UNK         0.0794 
    125 H125       28.5827  -44.4374  -53.7279 H         1 UNK         0.0794 
    126 H126       29.0700  -44.8447  -52.0927 H         1 UNK         0.0794 
    127 H127       31.5049  -45.0054  -51.7652 H         1 UNK         0.3016 
@<TRIPOS>BOND
     1    1    2 1    
     2    1   67 1    
     3    1   68 1    
     4    1   69 1    
     5    2    3 2    
     6    2    4 am   BACKBONE|DICT|INTERRES
     7    4    5 1    
     8    4   70 1    
     9    5    6 1    
    10    5   65 1    
    11    5   71 1    
    12    6    7 1    
    13    6   72 1    
    14    6   73 1    
    15    7    8 1    
    16    8    9 1    
    17    8   74 1    
    18    8   75 1    
    19    9   10 ar   
    20    9   14 ar   
    21   10   11 ar   
    22   10   76 1    
    23   11   12 ar   
    24   11   48 1    
    25   12   13 ar   
    26   12   77 1    
    27   13   14 ar   
    28   13   15 1    
    29   14   78 1    
    30   15   16 1    
    31   15   79 1    
    32   15   80 1    
    33   16   17 1    
    34   17   18 1    
    35   17   81 1    
    36   17   82 1    
    37   18   19 1    
    38   18   22 1    
    39   18   83 1    
    40   19   20 am   BACKBONE|DICT|INTERRES
    41   19   21 2    
    42   20   84 1    
    43   20   85 1    
    44   22   23 am   BACKBONE|DICT|INTERRES
    45   22   86 1    
    46   23   24 2    
    47   23   25 1    
    48   25   26 1    
    49   25   27 1    
    50   25   87 1    
    51   26   88 1    
    52   26   89 1    
    53   26   90 1    
    54   27   28 am   BACKBONE|DICT|INTERRES
    55   27   91 1    
    56   28   29 2    
    57   28   30 1    
    58   30   31 1    
    59   30   32 1    
    60   30   92 1    
    61   31   93 1    
    62   31   94 1    
    63   31   95 1    
    64   32   33 am   BACKBONE|DICT|INTERRES
    65   32   96 1    
    66   33   34 2    
    67   33   35 1    
    68   35   36 1    
    69   35   37 1    
    70   35   97 1    
    71   36   98 1    
    72   36   99 1    
    73   36  100 1    
    74   37   38 am   BACKBONE|DICT|INTERRES
    75   37  101 1    
    76   38   39 2    
    77   38   40 1    
    78   40   41 1    
    79   40   42 1    
    80   40  102 1    
    81   41  103 1    
    82   41  104 1    
    83   41  105 1    
    84   42   43 am   BACKBONE|DICT|INTERRES
    85   42  106 1    
    86   43   44 2    
    87   43   45 1    
    88   45   46 1    
    89   45   49 1    
    90   45  107 1    
    91   46   47 1    
    92   46  108 1    
    93   46  109 1    
    94   47   48 1    
    95   48  110 1    
    96   48  111 1    
    97   49   50 am   BACKBONE|DICT|INTERRES
    98   49  112 1    
    99   50   51 2    
   100   50   52 1    
   101   52   53 1    
   102   52   54 1    
   103   52  113 1    
   104   53  114 1    
   105   53  115 1    
   106   53  116 1    
   107   54   55 am   BACKBONE|DICT|INTERRES
   108   54  117 1    
   109   55   56 2    
   110   55   57 1    
   111   57   58 1    
   112   57   59 1    
   113   57  118 1    
   114   58  119 1    
   115   58  120 1    
   116   58  121 1    
   117   59   60 am   BACKBONE|DICT|INTERRES
   118   59  122 1    
   119   60   61 2    
   120   60   62 1    
   121   62   63 1    
   122   62   64 1    
   123   62  123 1    
   124   63  124 1    
   125   63  125 1    
   126   63  126 1    
   127   64   65 am   BACKBONE|DICT|INTERRES
   128   64  127 1    
   129   65   66 2    
@<TRIPOS>SUBSTRUCTURE
     1 UNK         1 GROUP             0       ****    0 ROOT    
