@<TRIPOS>MOLECULE
3R134
127   129    1
SMALL
USER_CHARGES


@<TRIPOS>ATOM
      1 CA         29.4700  -43.2937  -51.9732 C.3       0 UNK        -0.1968 
      2 C          29.9101  -44.5271  -52.7558 C.2       0 UNK         0.4852 
      3 O          29.2371  -44.9034  -53.7085 O.2       0 UNK        -0.5359 
      4 N          31.0060  -45.2024  -52.3971 N.am      1 UNK        -0.4300 
      5 CA         31.7957  -45.0256  -51.1767 C.3       1 UNK         0.0863 
      6 C6         32.8969  -43.9335  -51.2703 C.3       11 UNK        -0.0953 
      7 S7         34.2169  -44.2455  -52.4952 S.3       11 UNK        -0.2369 
      8 C8         34.2874  -42.6691  -53.4059 C.3       11 UNK         0.0226 
      9 C9         33.2902  -42.6363  -54.5534 C.ar      11 UNK        -0.0699 
     10 C10        33.5255  -43.4124  -55.6897 C.ar      11 UNK        -0.0804 
     11 C11        32.6124  -43.4204  -56.7465 C.ar      11 UNK        -0.0871 
     12 C12        31.4845  -42.5984  -56.6826 C.ar      11 UNK        -0.1008 
     13 C13        31.2271  -41.8156  -55.5484 C.ar      11 UNK        -0.0735 
     14 C14        32.1414  -41.8416  -54.4883 C.ar      11 UNK        -0.0945 
     15 C15        29.9806  -40.9335  -55.4193 C.3       11 UNK         0.0169 
     16 S16        28.6051  -41.3007  -56.5705 S.3       11 UNK        -0.2669 
     17 C17        28.1588  -42.9946  -56.0595 C.3       11 UNK        -0.0850 
     18 CA         27.3610  -43.7821  -57.1282 C.3       10 UNK         0.0855 
     19 C          28.2291  -44.1689  -58.3522 C.2       10 UNK         0.5543 
     20 N          28.0592  -43.4901  -59.4782 N.am      10 UNK        -0.7343 
     21 O          29.0723  -45.0591  -58.2841 O.2       10 UNK        -0.5027 
     22 N          26.7880  -44.9940  -56.5382 N.am      10 UNK        -0.4495 
     23 C          25.5254  -45.1443  -56.1252 C.2       10 UNK         0.4903 
     24 O          24.6744  -44.2545  -56.1787 O.2       10 UNK        -0.4860 
     25 CA         25.1618  -46.5280  -55.5515 C.3       9 UNK         0.0227 
     26 CB         23.6496  -46.7152  -55.3043 C.3       9 UNK        -0.1964 
     27 N          25.7121  -47.6222  -56.3574 N.am      9 UNK        -0.4231 
     28 C          25.4232  -47.9423  -57.6273 C.2       9 UNK         0.5014 
     29 O          24.5457  -47.3947  -58.2963 O.2       9 UNK        -0.5270 
     30 CA         26.2737  -49.0484  -58.2821 C.3       8 UNK         0.0284 
     31 CB         27.2931  -48.4235  -59.2494 C.3       8 UNK        -0.1977 
     32 N          26.9863  -49.8962  -57.3197 N.am      8 UNK        -0.4342 
     33 C          26.4097  -50.8241  -56.5423 C.2       8 UNK         0.5039 
     34 O          25.2148  -51.1172  -56.5992 O.2       8 UNK        -0.5547 
     35 CA         27.3089  -51.5225  -55.5049 C.3       7 UNK         0.0281 
     36 CB         28.1170  -52.6572  -56.1536 C.3       7 UNK        -0.1963 
     37 N          28.2136  -50.5938  -54.8197 N.am      7 UNK        -0.4444 
     38 C          27.8102  -49.6031  -54.0099 C.2       7 UNK         0.5104 
     39 O          26.6357  -49.4031  -53.7019 O.2       7 UNK        -0.5100 
     40 CA         28.8917  -48.6413  -53.4907 C.3       6 UNK         0.0396 
     41 CB         29.5484  -49.1928  -52.2172 C.3       6 UNK        -0.1801 
     42 N          29.9090  -48.3387  -54.5017 N.am      6 UNK        -0.4747 
     43 C          29.6537  -47.6712  -55.6388 C.2       6 UNK         0.5012 
     44 O          28.5477  -47.2213  -55.9342 O.2       6 UNK        -0.5003 
     45 CA         30.8127  -47.5428  -56.6414 C.3       5 UNK         0.0782 
     46 C46        31.7513  -46.3898  -56.2282 C.3       11 UNK        -0.0868 
     47 S47        33.0943  -46.0926  -57.4314 S.3       11 UNK        -0.2515 
     48 C48        32.8028  -44.3589  -57.9340 C.3       11 UNK         0.0199 
     49 N          31.5094  -48.8221  -56.8012 N.am      5 UNK        -0.4607 
     50 C          30.9563  -49.9063  -57.3615 C.2       4 UNK         0.5031 
     51 O          29.8167  -49.9276  -57.8236 O.2       4 UNK        -0.5119 
     52 CA         31.7901  -51.1968  -57.3833 C.3       4 UNK         0.0263 
     53 CB         32.6259  -51.2718  -58.6706 C.3       4 UNK        -0.1967 
     54 N          32.6673  -51.3531  -56.2218 N.am      4 UNK        -0.4237 
     55 C          32.2644  -51.4338  -54.9456 C.2       3 UNK         0.4908 
     56 O          31.0823  -51.3805  -54.5980 O.2       3 UNK        -0.5102 
     57 CA         33.3635  -51.6071  -53.8753 C.3       3 UNK         0.0241 
     58 CB         34.8042  -51.5465  -54.4358 C.3       3 UNK        -0.1971 
     59 N          33.2415  -50.6723  -52.7495 N.am      3 UNK        -0.4139 
     60 C          33.1317  -49.3377  -52.8104 C.2       2 UNK         0.5016 
     61 O          32.9777  -48.6926  -53.8530 O.2       2 UNK        -0.5319 
     62 CA         33.2302  -48.5955  -51.4709 C.3       2 UNK         0.0286 
     63 CB         34.6767  -48.6032  -50.9393 C.3       2 UNK        -0.1963 
     64 N          32.7863  -47.2199  -51.6690 N.am      2 UNK        -0.4790 
     65 C          32.3305  -46.3949  -50.7171 C.2       1 UNK         0.5024 
     66 O          32.2744  -46.6977  -49.5247 O.2       1 UNK        -0.4888 
     67 H67        28.6128  -42.8266  -52.4579 H         1 UNK         0.0892 
     68 H68        29.1721  -43.5589  -50.9596 H         1 UNK         0.0892 
     69 H69        30.2630  -42.5501  -51.9290 H         1 UNK         0.0892 
     70 H70        31.2380  -46.0220  -52.9357 H         1 UNK         0.3107 
     71 H71        31.1125  -44.7181  -50.3830 H         1 UNK         0.0773 
     72 H72        33.3756  -43.8127  -50.2970 H         1 UNK         0.0680 
     73 H73        32.4395  -42.9683  -51.4825 H         1 UNK         0.0680 
     74 H74        35.2936  -42.5478  -53.8096 H         1 UNK         0.0650 
     75 H75        34.1340  -41.8328  -52.7222 H         1 UNK         0.0650 
     76 H76        34.4021  -44.0445  -55.7327 H         1 UNK         0.1397 
     77 H77        30.7914  -42.6016  -57.5113 H         1 UNK         0.1363 
     78 H78        31.9571  -41.2420  -53.6074 H         1 UNK         0.1355 
     79 H79        29.5940  -41.0008  -54.4010 H         1 UNK         0.0707 
     80 H80        30.2802  -39.8953  -55.5671 H         1 UNK         0.0707 
     81 H81        27.5776  -42.9174  -55.1393 H         1 UNK         0.1034 
     82 H82        29.0599  -43.5477  -55.7963 H         1 UNK         0.1034 
     83 H83        26.5470  -43.1464  -57.4830 H         1 UNK         0.0482 
     84 H84        27.3869  -42.7414  -59.5381 H         1 UNK         0.3460 
     85 H85        28.6225  -43.7245  -60.2800 H         1 UNK         0.3460 
     86 H86        27.4326  -45.7791  -56.4562 H         1 UNK         0.2989 
     87 H87        25.6615  -46.5935  -54.5838 H         1 UNK         0.0559 
     88 H88        23.2773  -45.9761  -54.5940 H         1 UNK         0.0848 
     89 H89        23.4359  -47.6999  -54.8887 H         1 UNK         0.0848 
     90 H90        23.0696  -46.6035  -56.2206 H         1 UNK         0.0848 
     91 H91        26.5048  -48.0956  -55.9416 H         1 UNK         0.3144 
     92 H92        25.5978  -49.6821  -58.8600 H         1 UNK         0.0727 
     93 H93        27.8614  -49.1894  -59.7775 H         1 UNK         0.0790 
     94 H94        28.0029  -47.7816  -58.7253 H         1 UNK         0.0790 
     95 H95        26.7959  -47.8111  -60.0028 H         1 UNK         0.0790 
     96 H96        27.9963  -49.7774  -57.2737 H         1 UNK         0.3215 
     97 H97        26.6576  -51.9634  -54.7471 H         1 UNK         0.0863 
     98 H98        28.7484  -53.1649  -55.4240 H         1 UNK         0.0808 
     99 H99        28.7575  -52.2911  -56.9551 H         1 UNK         0.0808 
    100 H100       27.4532  -53.4065  -56.5869 H         1 UNK         0.0808 
    101 H101       29.2115  -50.7231  -54.9614 H         1 UNK         0.3118 
    102 H102       28.3972  -47.7025  -53.2311 H         1 UNK         0.0546 
    103 H103       30.1201  -50.1000  -52.4134 H         1 UNK         0.0828 
    104 H104       28.7953  -49.4400  -51.4677 H         1 UNK         0.0828 
    105 H105       30.2139  -48.4580  -51.7679 H         1 UNK         0.0828 
    106 H106       30.8401  -48.7141  -54.3592 H         1 UNK         0.3005 
    107 H107       30.3712  -47.2850  -57.6070 H         1 UNK         0.1257 
    108 H108       31.1610  -45.4811  -56.0993 H         1 UNK         0.0775 
    109 H109       32.2106  -46.5856  -55.2587 H         1 UNK         0.0775 
    110 H110       33.6464  -44.0132  -58.5325 H         1 UNK         0.0840 
    111 H111       31.9284  -44.3365  -58.5869 H         1 UNK         0.0840 
    112 H112       32.4372  -48.8829  -56.4056 H         1 UNK         0.2987 
    113 H113       31.0942  -52.0375  -57.3810 H         1 UNK         0.0785 
    114 H114       33.1526  -52.2230  -58.7486 H         1 UNK         0.0798 
    115 H115       33.3652  -50.4712  -58.7203 H         1 UNK         0.0798 
    116 H116       31.9902  -51.1828  -59.5530 H         1 UNK         0.0798 
    117 H117       33.6586  -51.3985  -56.4078 H         1 UNK         0.3079 
    118 H118       33.2135  -52.6049  -53.4606 H         1 UNK         0.0794 
    119 H119       34.9783  -52.3194  -55.1856 H         1 UNK         0.0786 
    120 H120       35.5360  -51.7117  -53.6447 H         1 UNK         0.0786 
    121 H121       35.0271  -50.5782  -54.8866 H         1 UNK         0.0786 
    122 H122       33.3095  -51.0979  -51.8356 H         1 UNK         0.3032 
    123 H123       32.5690  -49.0882  -50.7543 H         1 UNK         0.1094 
    124 H124       35.3606  -48.1144  -51.6345 H         1 UNK         0.0794 
    125 H125       34.7522  -48.0884  -49.9814 H         1 UNK         0.0794 
    126 H126       35.0388  -49.6203  -50.7848 H         1 UNK         0.0794 
    127 H127       32.8533  -46.9132  -52.6314 H         1 UNK         0.3016 
@<TRIPOS>BOND
     1    1    2 1    
     2    1   67 1    
     3    1   68 1    
     4    1   69 1    
     5    2    3 2    
     6    2    4 am   BACKBONE|DICT|INTERRES
     7    4    5 1    
     8    4   70 1    
     9    5    6 1    
    10    5   65 1    
    11    5   71 1    
    12    6    7 1    
    13    6   72 1    
    14    6   73 1    
    15    7    8 1    
    16    8    9 1    
    17    8   74 1    
    18    8   75 1    
    19    9   10 ar   
    20    9   14 ar   
    21   10   11 ar   
    22   10   76 1    
    23   11   12 ar   
    24   11   48 1    
    25   12   13 ar   
    26   12   77 1    
    27   13   14 ar   
    28   13   15 1    
    29   14   78 1    
    30   15   16 1    
    31   15   79 1    
    32   15   80 1    
    33   16   17 1    
    34   17   18 1    
    35   17   81 1    
    36   17   82 1    
    37   18   19 1    
    38   18   22 1    
    39   18   83 1    
    40   19   20 am   BACKBONE|DICT|INTERRES
    41   19   21 2    
    42   20   84 1    
    43   20   85 1    
    44   22   23 am   BACKBONE|DICT|INTERRES
    45   22   86 1    
    46   23   24 2    
    47   23   25 1    
    48   25   26 1    
    49   25   27 1    
    50   25   87 1    
    51   26   88 1    
    52   26   89 1    
    53   26   90 1    
    54   27   28 am   BACKBONE|DICT|INTERRES
    55   27   91 1    
    56   28   29 2    
    57   28   30 1    
    58   30   31 1    
    59   30   32 1    
    60   30   92 1    
    61   31   93 1    
    62   31   94 1    
    63   31   95 1    
    64   32   33 am   BACKBONE|DICT|INTERRES
    65   32   96 1    
    66   33   34 2    
    67   33   35 1    
    68   35   36 1    
    69   35   37 1    
    70   35   97 1    
    71   36   98 1    
    72   36   99 1    
    73   36  100 1    
    74   37   38 am   BACKBONE|DICT|INTERRES
    75   37  101 1    
    76   38   39 2    
    77   38   40 1    
    78   40   41 1    
    79   40   42 1    
    80   40  102 1    
    81   41  103 1    
    82   41  104 1    
    83   41  105 1    
    84   42   43 am   BACKBONE|DICT|INTERRES
    85   42  106 1    
    86   43   44 2    
    87   43   45 1    
    88   45   46 1    
    89   45   49 1    
    90   45  107 1    
    91   46   47 1    
    92   46  108 1    
    93   46  109 1    
    94   47   48 1    
    95   48  110 1    
    96   48  111 1    
    97   49   50 am   BACKBONE|DICT|INTERRES
    98   49  112 1    
    99   50   51 2    
   100   50   52 1    
   101   52   53 1    
   102   52   54 1    
   103   52  113 1    
   104   53  114 1    
   105   53  115 1    
   106   53  116 1    
   107   54   55 am   BACKBONE|DICT|INTERRES
   108   54  117 1    
   109   55   56 2    
   110   55   57 1    
   111   57   58 1    
   112   57   59 1    
   113   57  118 1    
   114   58  119 1    
   115   58  120 1    
   116   58  121 1    
   117   59   60 am   BACKBONE|DICT|INTERRES
   118   59  122 1    
   119   60   61 2    
   120   60   62 1    
   121   62   63 1    
   122   62   64 1    
   123   62  123 1    
   124   63  124 1    
   125   63  125 1    
   126   63  126 1    
   127   64   65 am   BACKBONE|DICT|INTERRES
   128   64  127 1    
   129   65   66 2    
@<TRIPOS>SUBSTRUCTURE
     1 UNK         1 GROUP             0       ****    0 ROOT    
