@<TRIPOS>MOLECULE
3R134
127   129    1
SMALL
USER_CHARGES


@<TRIPOS>ATOM
      1 CA         29.9375  -45.8490  -48.3205 C.3       0 UNK        -0.1968 
      2 C          31.4391  -46.0656  -48.4418 C.2       0 UNK         0.4852 
      3 O          32.0733  -46.5068  -47.4816 O.2       0 UNK        -0.5359 
      4 N          32.0106  -45.7509  -49.6108 N.am      1 UNK        -0.4300 
      5 CA         33.4196  -45.9739  -49.9465 C.3       1 UNK         0.0863 
      6 C6         33.8722  -45.0671  -51.1208 C.3       11 UNK        -0.0953 
      7 S7         32.9205  -45.3003  -52.6612 S.3       11 UNK        -0.2369 
      8 C8         33.5099  -43.8711  -53.6132 C.3       11 UNK         0.0226 
      9 C9         32.7699  -43.7528  -54.9345 C.ar      11 UNK        -0.0699 
     10 C10        33.3161  -44.2874  -56.1050 C.ar      11 UNK        -0.0804 
     11 C11        32.6375  -44.1697  -57.3209 C.ar      11 UNK        -0.0871 
     12 C12        31.4190  -43.4862  -57.3656 C.ar      11 UNK        -0.1008 
     13 C13        30.8552  -42.9619  -56.1994 C.ar      11 UNK        -0.0735 
     14 C14        31.5355  -43.0992  -54.9862 C.ar      11 UNK        -0.0945 
     15 C15        29.5120  -42.2493  -56.2452 C.3       11 UNK         0.0169 
     16 S16        28.1334  -43.4375  -56.2836 S.3       11 UNK        -0.2669 
     17 C17        28.0450  -43.8528  -58.0619 C.3       11 UNK        -0.0850 
     18 CA         26.5834  -44.0287  -58.5473 C.3       10 UNK         0.0855 
     19 C          26.4905  -44.1304  -60.0988 C.2       10 UNK         0.5543 
     20 N          25.7707  -45.0912  -60.6646 N.am      10 UNK        -0.7343 
     21 O          27.0713  -43.3105  -60.8055 O.2       10 UNK        -0.5027 
     22 N          25.9219  -45.1275  -57.8265 N.am      10 UNK        -0.4495 
     23 C          24.6229  -45.1682  -57.5037 C.2       10 UNK         0.4903 
     24 O          23.8108  -44.2993  -57.8225 O.2       10 UNK        -0.4860 
     25 CA         24.1344  -46.3813  -56.6909 C.3       9 UNK         0.0227 
     26 CB         23.3229  -47.3301  -57.5870 C.3       9 UNK        -0.1964 
     27 N          25.2328  -47.1138  -56.0479 N.am      9 UNK        -0.4231 
     28 C          25.8568  -46.6973  -54.9330 C.2       9 UNK         0.5014 
     29 O          25.4940  -45.7085  -54.2930 O.2       9 UNK        -0.5270 
     30 CA         27.1089  -47.4689  -54.4633 C.3       8 UNK         0.0284 
     31 CB         27.2379  -47.5174  -52.9256 C.3       8 UNK        -0.1977 
     32 N          27.2577  -48.8036  -55.0518 N.am      8 UNK        -0.4342 
     33 C          26.4718  -49.8780  -54.8991 C.2       8 UNK         0.5039 
     34 O          25.4902  -49.9196  -54.1558 O.2       8 UNK        -0.5547 
     35 CA         26.8460  -51.0973  -55.7693 C.3       7 UNK         0.0281 
     36 CB         25.7140  -52.1431  -55.8597 C.3       7 UNK        -0.1963 
     37 N          27.3111  -50.7090  -57.1116 N.am      7 UNK        -0.4444 
     38 C          26.6263  -49.9991  -58.0225 C.2       7 UNK         0.5104 
     39 O          25.4673  -49.6227  -57.8570 O.2       7 UNK        -0.5100 
     40 CA         27.3897  -49.5921  -59.3002 C.3       6 UNK         0.0396 
     41 CB         26.6295  -48.5425  -60.1380 C.3       6 UNK        -0.1801 
     42 N          28.7588  -49.1380  -59.0199 N.am      6 UNK        -0.4747 
     43 C          29.1213  -48.1147  -58.2299 C.2       6 UNK         0.5012 
     44 O          28.3251  -47.3532  -57.6727 O.2       6 UNK        -0.5003 
     45 CA         30.6374  -47.9476  -57.9891 C.3       5 UNK         0.0782 
     46 C46        31.1997  -46.7641  -58.8110 C.3       11 UNK        -0.0868 
     47 S47        33.0096  -46.5901  -58.6318 S.3       11 UNK        -0.2515 
     48 C48        33.2224  -44.7803  -58.5860 C.3       11 UNK         0.0199 
     49 N          30.9588  -47.8481  -56.5590 N.am      5 UNK        -0.4607 
     50 C          30.6471  -48.7716  -55.6392 C.2       4 UNK         0.5031 
     51 O          29.9866  -49.7826  -55.8881 O.2       4 UNK        -0.5119 
     52 CA         31.1754  -48.5348  -54.2114 C.3       4 UNK         0.0263 
     53 CB         30.7694  -49.6635  -53.2401 C.3       4 UNK        -0.1967 
     54 N          32.6283  -48.3254  -54.1519 N.am      4 UNK        -0.4237 
     55 C          33.5932  -49.0959  -54.6832 C.2       3 UNK         0.4908 
     56 O          33.3950  -50.1002  -55.3674 O.2       3 UNK        -0.5102 
     57 CA         35.0400  -48.6821  -54.3688 C.3       3 UNK         0.0241 
     58 CB         35.4199  -47.3819  -55.0957 C.3       3 UNK        -0.1971 
     59 N          35.2686  -48.5303  -52.9303 N.am      3 UNK        -0.4139 
     60 C          35.3001  -49.5420  -52.0494 C.2       2 UNK         0.5016 
     61 O          35.2058  -50.7292  -52.3628 O.2       2 UNK        -0.5319 
     62 CA         35.4766  -49.1734  -50.5635 C.3       2 UNK         0.0286 
     63 CB         36.9515  -49.3030  -50.1487 C.3       2 UNK        -0.1963 
     64 N          34.9985  -47.8264  -50.2306 N.am      2 UNK        -0.4790 
     65 C          33.7079  -47.4643  -50.2295 C.2       1 UNK         0.5024 
     66 O          32.7851  -48.2430  -50.4803 O.2       1 UNK        -0.4888 
     67 H67        29.5080  -45.4457  -49.2375 H         1 UNK         0.0892 
     68 H68        29.4397  -46.7929  -48.1003 H         1 UNK         0.0892 
     69 H69        29.7226  -45.1524  -47.5106 H         1 UNK         0.0892 
     70 H70        31.4376  -45.4250  -50.3759 H         1 UNK         0.3107 
     71 H71        34.0134  -45.6976  -49.0723 H         1 UNK         0.0773 
     72 H72        34.9319  -45.2105  -51.3394 H         1 UNK         0.0680 
     73 H73        33.7769  -44.0233  -50.8171 H         1 UNK         0.0680 
     74 H74        33.3680  -42.9602  -53.0296 H         1 UNK         0.0650 
     75 H75        34.5834  -43.9668  -53.7834 H         1 UNK         0.0650 
     76 H76        34.2682  -44.7972  -56.0750 H         1 UNK         0.1397 
     77 H77        30.8994  -43.3788  -58.3070 H         1 UNK         0.1363 
     78 H78        31.1057  -42.6967  -54.0790 H         1 UNK         0.1355 
     79 H79        29.4653  -41.5783  -57.1040 H         1 UNK         0.0707 
     80 H80        29.3953  -41.6157  -55.3646 H         1 UNK         0.0707 
     81 H81        28.6202  -44.7610  -58.2411 H         1 UNK         0.1034 
     82 H82        28.5356  -43.0627  -58.6324 H         1 UNK         0.1034 
     83 H83        26.0583  -43.1041  -58.3000 H         1 UNK         0.0482 
     84 H84        25.2607  -45.7450  -60.0948 H         1 UNK         0.3460 
     85 H85        25.7132  -45.1387  -61.6695 H         1 UNK         0.3460 
     86 H86        26.5242  -45.8899  -57.5428 H         1 UNK         0.2989 
     87 H87        23.4660  -46.0092  -55.9117 H         1 UNK         0.0559 
     88 H88        23.0087  -48.2222  -57.0449 H         1 UNK         0.0848 
     89 H89        23.8918  -47.6496  -58.4604 H         1 UNK         0.0848 
     90 H90        22.4208  -46.8390  -57.9542 H         1 UNK         0.0848 
     91 H91        25.5562  -47.9538  -56.5154 H         1 UNK         0.3144 
     92 H92        27.9556  -46.8921  -54.8393 H         1 UNK         0.0727 
     93 H93        28.1491  -48.0281  -52.6170 H         1 UNK         0.0790 
     94 H94        26.3925  -48.0290  -52.4649 H         1 UNK         0.0790 
     95 H95        27.2769  -46.5125  -52.5035 H         1 UNK         0.0790 
     96 H96        28.0328  -48.9048  -55.6982 H         1 UNK         0.3215 
     97 H97        27.6960  -51.5707  -55.2747 H         1 UNK         0.0863 
     98 H98        26.0101  -52.9973  -56.4683 H         1 UNK         0.0808 
     99 H99        24.8056  -51.7213  -56.2913 H         1 UNK         0.0808 
    100 H100       25.4556  -52.5245  -54.8711 H         1 UNK         0.0808 
    101 H101       28.2828  -50.9130  -57.3077 H         1 UNK         0.3118 
    102 H102       27.4787  -50.4962  -59.9042 H         1 UNK         0.0546 
    103 H103       26.4512  -47.6296  -59.5710 H         1 UNK         0.0828 
    104 H104       25.6575  -48.9231  -60.4540 H         1 UNK         0.0828 
    105 H105       27.1811  -48.2750  -61.0390 H         1 UNK         0.0828 
    106 H106       29.4881  -49.7089  -59.4260 H         1 UNK         0.3005 
    107 H107       31.1335  -48.8550  -58.3411 H         1 UNK         0.1257 
    108 H108       30.9835  -46.8977  -59.8728 H         1 UNK         0.0775 
    109 H109       30.7061  -45.8394  -58.5170 H         1 UNK         0.0775 
    110 H110       34.2873  -44.5490  -58.6402 H         1 UNK         0.0840 
    111 H111       32.7709  -44.3404  -59.4768 H         1 UNK         0.0840 
    112 H112       31.5030  -47.0428  -56.2856 H         1 UNK         0.2987 
    113 H113       30.7100  -47.6124  -53.8602 H         1 UNK         0.0785 
    114 H114       31.0704  -49.4335  -52.2184 H         1 UNK         0.0798 
    115 H115       31.2252  -50.6148  -53.5167 H         1 UNK         0.0798 
    116 H116       29.6890  -49.8111  -53.2331 H         1 UNK         0.0798 
    117 H117       32.9183  -47.5165  -53.6181 H         1 UNK         0.3079 
    118 H118       35.6965  -49.4747  -54.7349 H         1 UNK         0.0794 
    119 H119       35.1902  -47.4444  -56.1607 H         1 UNK         0.0786 
    120 H120       36.4870  -47.1776  -55.0063 H         1 UNK         0.0786 
    121 H121       34.8829  -46.5246  -54.6928 H         1 UNK         0.0786 
    122 H122       35.3674  -47.5912  -52.5754 H         1 UNK         0.3032 
    123 H123       34.8936  -49.8929  -49.9833 H         1 UNK         0.1094 
    124 H124       37.5869  -48.5970  -50.6849 H         1 UNK         0.0794 
    125 H125       37.0807  -49.1289  -49.0802 H         1 UNK         0.0794 
    126 H126       37.3289  -50.3049  -50.3588 H         1 UNK         0.0794 
    127 H127       35.7029  -47.1377  -50.0048 H         1 UNK         0.3016 
@<TRIPOS>BOND
     1    1    2 1    
     2    1   67 1    
     3    1   68 1    
     4    1   69 1    
     5    2    3 2    
     6    2    4 am   BACKBONE|DICT|INTERRES
     7    4    5 1    
     8    4   70 1    
     9    5    6 1    
    10    5   65 1    
    11    5   71 1    
    12    6    7 1    
    13    6   72 1    
    14    6   73 1    
    15    7    8 1    
    16    8    9 1    
    17    8   74 1    
    18    8   75 1    
    19    9   10 ar   
    20    9   14 ar   
    21   10   11 ar   
    22   10   76 1    
    23   11   12 ar   
    24   11   48 1    
    25   12   13 ar   
    26   12   77 1    
    27   13   14 ar   
    28   13   15 1    
    29   14   78 1    
    30   15   16 1    
    31   15   79 1    
    32   15   80 1    
    33   16   17 1    
    34   17   18 1    
    35   17   81 1    
    36   17   82 1    
    37   18   19 1    
    38   18   22 1    
    39   18   83 1    
    40   19   20 am   BACKBONE|DICT|INTERRES
    41   19   21 2    
    42   20   84 1    
    43   20   85 1    
    44   22   23 am   BACKBONE|DICT|INTERRES
    45   22   86 1    
    46   23   24 2    
    47   23   25 1    
    48   25   26 1    
    49   25   27 1    
    50   25   87 1    
    51   26   88 1    
    52   26   89 1    
    53   26   90 1    
    54   27   28 am   BACKBONE|DICT|INTERRES
    55   27   91 1    
    56   28   29 2    
    57   28   30 1    
    58   30   31 1    
    59   30   32 1    
    60   30   92 1    
    61   31   93 1    
    62   31   94 1    
    63   31   95 1    
    64   32   33 am   BACKBONE|DICT|INTERRES
    65   32   96 1    
    66   33   34 2    
    67   33   35 1    
    68   35   36 1    
    69   35   37 1    
    70   35   97 1    
    71   36   98 1    
    72   36   99 1    
    73   36  100 1    
    74   37   38 am   BACKBONE|DICT|INTERRES
    75   37  101 1    
    76   38   39 2    
    77   38   40 1    
    78   40   41 1    
    79   40   42 1    
    80   40  102 1    
    81   41  103 1    
    82   41  104 1    
    83   41  105 1    
    84   42   43 am   BACKBONE|DICT|INTERRES
    85   42  106 1    
    86   43   44 2    
    87   43   45 1    
    88   45   46 1    
    89   45   49 1    
    90   45  107 1    
    91   46   47 1    
    92   46  108 1    
    93   46  109 1    
    94   47   48 1    
    95   48  110 1    
    96   48  111 1    
    97   49   50 am   BACKBONE|DICT|INTERRES
    98   49  112 1    
    99   50   51 2    
   100   50   52 1    
   101   52   53 1    
   102   52   54 1    
   103   52  113 1    
   104   53  114 1    
   105   53  115 1    
   106   53  116 1    
   107   54   55 am   BACKBONE|DICT|INTERRES
   108   54  117 1    
   109   55   56 2    
   110   55   57 1    
   111   57   58 1    
   112   57   59 1    
   113   57  118 1    
   114   58  119 1    
   115   58  120 1    
   116   58  121 1    
   117   59   60 am   BACKBONE|DICT|INTERRES
   118   59  122 1    
   119   60   61 2    
   120   60   62 1    
   121   62   63 1    
   122   62   64 1    
   123   62  123 1    
   124   63  124 1    
   125   63  125 1    
   126   63  126 1    
   127   64   65 am   BACKBONE|DICT|INTERRES
   128   64  127 1    
   129   65   66 2    
@<TRIPOS>SUBSTRUCTURE
     1 UNK         1 GROUP             0       ****    0 ROOT    
