@<TRIPOS>MOLECULE
3R134
127   129    1
SMALL
USER_CHARGES


@<TRIPOS>ATOM
      1 CA         35.1864  -45.9073  -47.3126 C.3       0 UNK        -0.1968 
      2 C          35.2290  -46.3132  -48.7783 C.2       0 UNK         0.4852 
      3 O          35.9580  -47.2389  -49.1361 O.2       0 UNK        -0.5359 
      4 N          34.4457  -45.6354  -49.6275 N.am      1 UNK        -0.4300 
      5 CA         34.3532  -45.8794  -51.0731 C.3       1 UNK         0.0863 
      6 C6         33.9683  -44.5880  -51.8459 C.3       11 UNK        -0.0953 
      7 S7         32.3422  -43.8873  -51.3877 S.3       11 UNK        -0.2369 
      8 C8         32.2166  -42.4825  -52.5408 C.3       11 UNK         0.0226 
      9 C9         31.6881  -42.8936  -53.9100 C.ar      11 UNK        -0.0699 
     10 C10        32.5719  -43.2784  -54.9243 C.ar      11 UNK        -0.0804 
     11 C11        32.0910  -43.6252  -56.1906 C.ar      11 UNK        -0.0871 
     12 C12        30.7194  -43.5739  -56.4365 C.ar      11 UNK        -0.1008 
     13 C13        29.8190  -43.1996  -55.4379 C.ar      11 UNK        -0.0735 
     14 C14        30.3129  -42.8596  -54.1730 C.ar      11 UNK        -0.0945 
     15 C15        28.3167  -43.2117  -55.7073 C.3       11 UNK         0.0169 
     16 S16        27.7936  -42.0507  -57.0138 S.3       11 UNK        -0.2669 
     17 C17        27.7939  -43.0858  -58.5261 C.3       11 UNK        -0.0850 
     18 CA         26.4251  -43.7564  -58.8030 C.3       10 UNK         0.0855 
     19 C          26.3810  -44.3566  -60.2309 C.2       10 UNK         0.5543 
     20 N          25.6864  -43.7100  -61.1564 N.am      10 UNK        -0.7343 
     21 O          27.0055  -45.3765  -60.5159 O.2       10 UNK        -0.5027 
     22 N          26.1495  -44.8079  -57.8192 N.am      10 UNK        -0.4495 
     23 C          24.9466  -45.0715  -57.2996 C.2       10 UNK         0.4903 
     24 O          23.9273  -44.4303  -57.5625 O.2       10 UNK        -0.4860 
     25 CA         24.8874  -46.2477  -56.3081 C.3       9 UNK         0.0227 
     26 CB         23.4541  -46.5851  -55.8448 C.3       9 UNK        -0.1964 
     27 N          25.5725  -47.4434  -56.8090 N.am      9 UNK        -0.4231 
     28 C          25.2753  -48.1674  -57.9005 C.2       9 UNK         0.5014 
     29 O          24.3378  -47.9156  -58.6587 O.2       9 UNK        -0.5270 
     30 CA         26.1702  -49.3856  -58.2123 C.3       8 UNK         0.0284 
     31 CB         27.0173  -49.1164  -59.4673 C.3       8 UNK        -0.1977 
     32 N          27.0636  -49.7637  -57.1138 N.am      8 UNK        -0.4342 
     33 C          26.6861  -50.3131  -55.9511 C.2       8 UNK         0.5039 
     34 O          25.5360  -50.6756  -55.7037 O.2       8 UNK        -0.5547 
     35 CA         27.7659  -50.4112  -54.8588 C.3       7 UNK         0.0281 
     36 CB         28.5678  -51.7170  -54.9804 C.3       7 UNK        -0.1963 
     37 N          28.6739  -49.2585  -54.8821 N.am      7 UNK        -0.4444 
     38 C          28.3223  -48.0158  -54.5201 C.2       7 UNK         0.5104 
     39 O          27.2140  -47.7234  -54.0740 O.2       7 UNK        -0.5100 
     40 CA         29.3562  -46.9022  -54.7339 C.3       6 UNK         0.0396 
     41 CB         30.2367  -46.7322  -53.4953 C.3       6 UNK        -0.1801 
     42 N          30.1949  -47.1437  -55.9081 N.am      6 UNK        -0.4747 
     43 C          29.7999  -46.9028  -57.1663 C.2       6 UNK         0.5012 
     44 O          28.6998  -46.4235  -57.4514 O.2       6 UNK        -0.5003 
     45 CA         30.7697  -47.3036  -58.3002 C.3       5 UNK         0.0782 
     46 C46        31.7150  -46.1442  -58.7133 C.3       11 UNK        -0.0868 
     47 S47        33.0945  -45.8397  -57.5424 S.3       11 UNK        -0.2515 
     48 C48        33.0472  -44.0336  -57.3026 C.3       11 UNK         0.0199 
     49 N          31.5283  -48.5264  -58.0212 N.am      5 UNK        -0.4607 
     50 C          31.0249  -49.7354  -57.7497 C.2       4 UNK         0.5031 
     51 O          29.8198  -49.9775  -57.7126 O.2       4 UNK        -0.5119 
     52 CA         32.0321  -50.8592  -57.4324 C.3       4 UNK         0.0263 
     53 CB         33.4487  -50.5886  -57.9886 C.3       4 UNK        -0.1967 
     54 N          32.1153  -51.1792  -55.9993 N.am      4 UNK        -0.4237 
     55 C          32.3130  -50.3206  -54.9878 C.2       3 UNK         0.4908 
     56 O          32.3396  -49.0942  -55.1173 O.2       3 UNK        -0.5102 
     57 CA         32.5344  -50.9379  -53.5996 C.3       3 UNK         0.0241 
     58 CB         33.9422  -51.5519  -53.4847 C.3       3 UNK        -0.1971 
     59 N          32.3683  -49.8852  -52.6040 N.am      3 UNK        -0.4139 
     60 C          32.0683  -50.0275  -51.3123 C.2       2 UNK         0.5016 
     61 O          31.9957  -51.1238  -50.7531 O.2       2 UNK        -0.5319 
     62 CA         31.7550  -48.7326  -50.5242 C.3       2 UNK         0.0286 
     63 CB         31.2765  -49.0269  -49.0892 C.3       2 UNK        -0.1963 
     64 N          32.8319  -47.7345  -50.4476 N.am      2 UNK        -0.4790 
     65 C          33.4269  -47.0604  -51.4458 C.2       1 UNK         0.5024 
     66 O          33.2451  -47.3007  -52.6368 O.2       1 UNK        -0.4888 
     67 H67        36.1766  -45.5957  -46.9813 H         1 UNK         0.0892 
     68 H68        34.4958  -45.0826  -47.1371 H         1 UNK         0.0892 
     69 H69        34.8711  -46.7502  -46.6982 H         1 UNK         0.0892 
     70 H70        33.8555  -44.8911  -49.2812 H         1 UNK         0.3107 
     71 H71        35.3460  -46.1684  -51.4251 H         1 UNK         0.0773 
     72 H72        33.9811  -44.7762  -52.9202 H         1 UNK         0.0680 
     73 H73        34.7270  -43.8232  -51.6734 H         1 UNK         0.0680 
     74 H74        33.1888  -41.9969  -52.6379 H         1 UNK         0.0650 
     75 H75        31.5519  -41.7363  -52.1030 H         1 UNK         0.0650 
     76 H76        33.6351  -43.3009  -54.7298 H         1 UNK         0.1397 
     77 H77        30.3559  -43.8380  -57.4121 H         1 UNK         0.1363 
     78 H78        29.6278  -42.5707  -53.3877 H         1 UNK         0.1355 
     79 H79        28.0043  -44.2191  -55.9724 H         1 UNK         0.0707 
     80 H80        27.7706  -42.9600  -54.7971 H         1 UNK         0.0707 
     81 H81        28.0653  -42.4284  -59.3547 H         1 UNK         0.1034 
     82 H82        28.5708  -43.8459  -58.4866 H         1 UNK         0.1034 
     83 H83        25.6581  -42.9820  -58.7328 H         1 UNK         0.0482 
     84 H84        25.1781  -42.8680  -60.9341 H         1 UNK         0.3460 
     85 H85        25.6600  -44.0778  -62.0947 H         1 UNK         0.3460 
     86 H86        26.9257  -45.4314  -57.6194 H         1 UNK         0.2989 
     87 H87        25.4464  -45.9276  -55.4276 H         1 UNK         0.0559 
     88 H88        22.8139  -46.8734  -56.6791 H         1 UNK         0.0848 
     89 H89        22.9882  -45.7259  -55.3608 H         1 UNK         0.0848 
     90 H90        23.4535  -47.4023  -55.1234 H         1 UNK         0.0848 
     91 H91        26.3638  -47.7448  -56.2566 H         1 UNK         0.3144 
     92 H92        25.5106  -50.2314  -58.4165 H         1 UNK         0.0727 
     93 H93        27.6316  -49.9787  -59.7274 H         1 UNK         0.0790 
     94 H94        27.6792  -48.2609  -59.3284 H         1 UNK         0.0790 
     95 H95        26.3834  -48.8975  -60.3277 H         1 UNK         0.0790 
     96 H96        28.0589  -49.6079  -57.2651 H         1 UNK         0.3215 
     97 H97        27.2560  -50.4189  -53.8927 H         1 UNK         0.0863 
     98 H98        29.2949  -51.8119  -54.1742 H         1 UNK         0.0808 
     99 H99        29.1021  -51.7841  -55.9278 H         1 UNK         0.0808 
    100 H100       27.9066  -52.5826  -54.9212 H         1 UNK         0.0808 
    101 H101       29.5840  -49.3937  -55.2991 H         1 UNK         0.3118 
    102 H102       28.8112  -45.9701  -54.8735 H         1 UNK         0.0546 
    103 H103       29.6403  -46.4847  -52.6164 H         1 UNK         0.0828 
    104 H104       30.9656  -45.9323  -53.6314 H         1 UNK         0.0828 
    105 H105       30.7786  -47.6500  -53.2820 H         1 UNK         0.0828 
    106 H106       31.1075  -47.5627  -55.7503 H         1 UNK         0.3005 
    107 H107       30.1347  -47.5271  -59.1604 H         1 UNK         0.1257 
    108 H108       31.1511  -45.2308  -58.8993 H         1 UNK         0.0775 
    109 H109       32.1690  -46.3886  -59.6748 H         1 UNK         0.0775 
    110 H110       34.0566  -43.6929  -57.0673 H         1 UNK         0.0840 
    111 H111       32.7761  -43.5380  -58.2360 H         1 UNK         0.0840 
    112 H112       32.5290  -48.4055  -57.9591 H         1 UNK         0.2987 
    113 H113       31.6492  -51.7519  -57.9296 H         1 UNK         0.0785 
    114 H114       33.4185  -50.3518  -59.0532 H         1 UNK         0.0798 
    115 H115       34.0838  -51.4677  -57.8775 H         1 UNK         0.0798 
    116 H116       33.9445  -49.7631  -57.4760 H         1 UNK         0.0798 
    117 H117       32.0726  -52.1648  -55.7794 H         1 UNK         0.3079 
    118 H118       31.7776  -51.7075  -53.4347 H         1 UNK         0.0794 
    119 H119       34.7189  -50.8022  -53.6423 H         1 UNK         0.0786 
    120 H120       34.0930  -52.3401  -54.2232 H         1 UNK         0.0786 
    121 H121       34.1033  -51.9970  -52.5027 H         1 UNK         0.0786 
    122 H122       32.4888  -48.9406  -52.9723 H         1 UNK         0.3032 
    123 H123       30.9186  -48.2605  -51.0411 H         1 UNK         0.1094 
    124 H124       30.4320  -49.7177  -49.0895 H         1 UNK         0.0794 
    125 H125       32.0662  -49.4770  -48.4862 H         1 UNK         0.0794 
    126 H126       30.9437  -48.1191  -48.5853 H         1 UNK         0.0794 
    127 H127       33.0998  -47.4637  -49.5131 H         1 UNK         0.3016 
@<TRIPOS>BOND
     1    1    2 1    
     2    1   67 1    
     3    1   68 1    
     4    1   69 1    
     5    2    3 2    
     6    2    4 am   BACKBONE|DICT|INTERRES
     7    4    5 1    
     8    4   70 1    
     9    5    6 1    
    10    5   65 1    
    11    5   71 1    
    12    6    7 1    
    13    6   72 1    
    14    6   73 1    
    15    7    8 1    
    16    8    9 1    
    17    8   74 1    
    18    8   75 1    
    19    9   10 ar   
    20    9   14 ar   
    21   10   11 ar   
    22   10   76 1    
    23   11   12 ar   
    24   11   48 1    
    25   12   13 ar   
    26   12   77 1    
    27   13   14 ar   
    28   13   15 1    
    29   14   78 1    
    30   15   16 1    
    31   15   79 1    
    32   15   80 1    
    33   16   17 1    
    34   17   18 1    
    35   17   81 1    
    36   17   82 1    
    37   18   19 1    
    38   18   22 1    
    39   18   83 1    
    40   19   20 am   BACKBONE|DICT|INTERRES
    41   19   21 2    
    42   20   84 1    
    43   20   85 1    
    44   22   23 am   BACKBONE|DICT|INTERRES
    45   22   86 1    
    46   23   24 2    
    47   23   25 1    
    48   25   26 1    
    49   25   27 1    
    50   25   87 1    
    51   26   88 1    
    52   26   89 1    
    53   26   90 1    
    54   27   28 am   BACKBONE|DICT|INTERRES
    55   27   91 1    
    56   28   29 2    
    57   28   30 1    
    58   30   31 1    
    59   30   32 1    
    60   30   92 1    
    61   31   93 1    
    62   31   94 1    
    63   31   95 1    
    64   32   33 am   BACKBONE|DICT|INTERRES
    65   32   96 1    
    66   33   34 2    
    67   33   35 1    
    68   35   36 1    
    69   35   37 1    
    70   35   97 1    
    71   36   98 1    
    72   36   99 1    
    73   36  100 1    
    74   37   38 am   BACKBONE|DICT|INTERRES
    75   37  101 1    
    76   38   39 2    
    77   38   40 1    
    78   40   41 1    
    79   40   42 1    
    80   40  102 1    
    81   41  103 1    
    82   41  104 1    
    83   41  105 1    
    84   42   43 am   BACKBONE|DICT|INTERRES
    85   42  106 1    
    86   43   44 2    
    87   43   45 1    
    88   45   46 1    
    89   45   49 1    
    90   45  107 1    
    91   46   47 1    
    92   46  108 1    
    93   46  109 1    
    94   47   48 1    
    95   48  110 1    
    96   48  111 1    
    97   49   50 am   BACKBONE|DICT|INTERRES
    98   49  112 1    
    99   50   51 2    
   100   50   52 1    
   101   52   53 1    
   102   52   54 1    
   103   52  113 1    
   104   53  114 1    
   105   53  115 1    
   106   53  116 1    
   107   54   55 am   BACKBONE|DICT|INTERRES
   108   54  117 1    
   109   55   56 2    
   110   55   57 1    
   111   57   58 1    
   112   57   59 1    
   113   57  118 1    
   114   58  119 1    
   115   58  120 1    
   116   58  121 1    
   117   59   60 am   BACKBONE|DICT|INTERRES
   118   59  122 1    
   119   60   61 2    
   120   60   62 1    
   121   62   63 1    
   122   62   64 1    
   123   62  123 1    
   124   63  124 1    
   125   63  125 1    
   126   63  126 1    
   127   64   65 am   BACKBONE|DICT|INTERRES
   128   64  127 1    
   129   65   66 2    
@<TRIPOS>SUBSTRUCTURE
     1 UNK         1 GROUP             0       ****    0 ROOT    
