@<TRIPOS>MOLECULE
3R134
127   129    1
SMALL
USER_CHARGES


@<TRIPOS>ATOM
      1 CA         37.2980  -47.1314  -50.5286 C.3       0 UNK        -0.1968 
      2 C          36.3926  -46.3825  -51.4947 C.2       0 UNK         0.4852 
      3 O          35.1746  -46.5652  -51.4509 O.2       0 UNK        -0.5359 
      4 N          36.9775  -45.5486  -52.3685 N.am      1 UNK        -0.4300 
      5 CA         36.2968  -44.7762  -53.4146 C.3       1 UNK         0.0863 
      6 C6         35.3485  -43.6966  -52.8221 C.3       11 UNK        -0.0953 
      7 S7         34.8690  -42.4278  -54.0388 S.3       11 UNK        -0.2369 
      8 C8         33.4520  -41.6616  -53.1958 C.3       11 UNK         0.0226 
      9 C9         32.1717  -42.4690  -53.3632 C.ar      11 UNK        -0.0699 
     10 C10        31.7620  -43.3689  -52.3746 C.ar      11 UNK        -0.0804 
     11 C11        30.5529  -44.0616  -52.4981 C.ar      11 UNK        -0.0871 
     12 C12        29.7483  -43.8446  -53.6220 C.ar      11 UNK        -0.1008 
     13 C13        30.1500  -42.9499  -54.6188 C.ar      11 UNK        -0.0735 
     14 C14        31.3661  -42.2730  -54.4881 C.ar      11 UNK        -0.0945 
     15 C15        29.2518  -42.6733  -55.8139 C.3       11 UNK         0.0169 
     16 S16        29.4456  -43.9289  -57.1143 S.3       11 UNK        -0.2669 
     17 C17        28.6023  -43.0898  -58.5012 C.3       11 UNK        -0.0850 
     18 CA         27.0544  -43.1661  -58.4230 C.3       10 UNK         0.0855 
     19 C          26.3949  -42.3204  -59.5509 C.2       10 UNK         0.5543 
     20 N          25.6272  -42.9058  -60.4623 N.am      10 UNK        -0.7343 
     21 O          26.5794  -41.1066  -59.5937 O.2       10 UNK        -0.5027 
     22 N          26.5883  -44.5579  -58.3569 N.am      10 UNK        -0.4495 
     23 C          25.4336  -44.9713  -57.8268 C.2       10 UNK         0.4903 
     24 O          24.6093  -44.2124  -57.3162 O.2       10 UNK        -0.4860 
     25 CA         25.1396  -46.4841  -57.8436 C.3       9 UNK         0.0227 
     26 CB         24.1479  -46.8453  -58.9664 C.3       9 UNK        -0.1964 
     27 N          26.3242  -47.3559  -57.8760 N.am      9 UNK        -0.4231 
     28 C          27.2234  -47.5339  -58.8565 C.2       9 UNK         0.5014 
     29 O          27.2158  -46.9119  -59.9191 O.2       9 UNK        -0.5270 
     30 CA         28.3404  -48.5586  -58.5979 C.3       8 UNK         0.0284 
     31 CB         29.5173  -47.8904  -57.8698 C.3       8 UNK        -0.1977 
     32 N          27.8894  -49.7205  -57.8291 N.am      8 UNK        -0.4342 
     33 C          26.9978  -50.6275  -58.2547 C.2       8 UNK         0.5039 
     34 O          26.4843  -50.6180  -59.3741 O.2       8 UNK        -0.5547 
     35 CA         26.6026  -51.7240  -57.2551 C.3       7 UNK         0.0281 
     36 CB         27.6427  -52.8564  -57.2483 C.3       7 UNK        -0.1963 
     37 N          26.4521  -51.1775  -55.9050 N.am      7 UNK        -0.4444 
     38 C          25.3376  -50.5853  -55.4531 C.2       7 UNK         0.5104 
     39 O          24.2945  -50.5030  -56.1018 O.2       7 UNK        -0.5100 
     40 CA         25.3870  -49.9767  -54.0389 C.3       6 UNK         0.0396 
     41 CB         24.8896  -50.9948  -53.0008 C.3       6 UNK        -0.1801 
     42 N          26.7161  -49.4978  -53.6485 N.am      6 UNK        -0.4747 
     43 C          27.3391  -48.4446  -54.1979 C.2       6 UNK         0.5012 
     44 O          26.8540  -47.7572  -55.0955 O.2       6 UNK        -0.5003 
     45 CA         28.7642  -48.1390  -53.6928 C.3       5 UNK         0.0782 
     46 C46        28.7042  -47.2300  -52.4425 C.3       11 UNK        -0.0868 
     47 S47        30.3585  -46.7537  -51.8312 S.3       11 UNK        -0.2515 
     48 C48        30.1038  -45.0053  -51.3907 C.3       11 UNK         0.0199 
     49 N          29.5664  -49.3461  -53.4523 N.am      5 UNK        -0.4607 
     50 C          29.8066  -50.3253  -54.3333 C.2       4 UNK         0.5031 
     51 O          29.2962  -50.3765  -55.4532 O.2       4 UNK        -0.5119 
     52 CA         30.8092  -51.3992  -53.8889 C.3       4 UNK         0.0263 
     53 CB         30.9322  -52.5536  -54.9000 C.3       4 UNK        -0.1967 
     54 N          32.1144  -50.7668  -53.7285 N.am      4 UNK        -0.4237 
     55 C          32.6207  -50.2972  -52.5845 C.2       3 UNK         0.4908 
     56 O          32.0728  -50.4286  -51.4898 O.2       3 UNK        -0.5102 
     57 CA         33.9449  -49.5220  -52.6831 C.3       3 UNK         0.0241 
     58 CB         35.1026  -50.4156  -53.1709 C.3       3 UNK        -0.1971 
     59 N          33.8487  -48.2857  -53.4711 N.am      3 UNK        -0.4139 
     60 C          33.5670  -48.1308  -54.7762 C.2       2 UNK         0.5016 
     61 O          33.3410  -49.0637  -55.5486 O.2       2 UNK        -0.5319 
     62 CA         33.5343  -46.6921  -55.3266 C.3       2 UNK         0.0286 
     63 CB         32.0872  -46.1884  -55.4309 C.3       2 UNK        -0.1963 
     64 N          34.3111  -45.7443  -54.5255 N.am      2 UNK        -0.4790 
     65 C          35.6480  -45.7417  -54.4325 C.2       1 UNK         0.5024 
     66 O          36.3749  -46.4888  -55.0904 O.2       1 UNK        -0.4888 
     67 H67        38.3482  -46.8780  -50.6724 H         1 UNK         0.0892 
     68 H68        37.0283  -46.8912  -49.5006 H         1 UNK         0.0892 
     69 H69        37.1854  -48.2062  -50.6686 H         1 UNK         0.0892 
     70 H70        37.9852  -45.4704  -52.3694 H         1 UNK         0.3107 
     71 H71        37.0890  -44.2573  -53.9570 H         1 UNK         0.0773 
     72 H72        34.4645  -44.1481  -52.3730 H         1 UNK         0.0680 
     73 H73        35.8553  -43.1759  -52.0081 H         1 UNK         0.0680 
     74 H74        33.3058  -40.6609  -53.6050 H         1 UNK         0.0650 
     75 H75        33.6846  -41.5226  -52.1388 H         1 UNK         0.0650 
     76 H76        32.3746  -43.5138  -51.4953 H         1 UNK         0.1397 
     77 H77        28.8043  -44.3615  -53.7206 H         1 UNK         0.1363 
     78 H78        31.6762  -41.5727  -55.2518 H         1 UNK         0.1355 
     79 H79        28.2094  -42.6461  -55.4931 H         1 UNK         0.0707 
     80 H80        29.4726  -41.6857  -56.2220 H         1 UNK         0.0707 
     81 H81        28.9386  -42.0516  -58.5351 H         1 UNK         0.1034 
     82 H82        28.9521  -43.5434  -59.4304 H         1 UNK         0.1034 
     83 H83        26.7553  -42.6822  -57.4917 H         1 UNK         0.0482 
     84 H84        25.4759  -43.9014  -60.4344 H         1 UNK         0.3460 
     85 H85        25.2019  -42.3476  -61.1857 H         1 UNK         0.3460 
     86 H86        27.1640  -45.2502  -58.8218 H         1 UNK         0.2989 
     87 H87        24.6513  -46.7074  -56.8936 H         1 UNK         0.0559 
     88 H88        23.2240  -46.2738  -58.8683 H         1 UNK         0.0848 
     89 H89        23.8807  -47.9017  -58.9324 H         1 UNK         0.0848 
     90 H90        24.5546  -46.6341  -59.9557 H         1 UNK         0.0848 
     91 H91        26.5110  -47.8224  -56.9918 H         1 UNK         0.3144 
     92 H92        28.6940  -48.9179  -59.5665 H         1 UNK         0.0727 
     93 H93        29.2137  -47.4885  -56.9031 H         1 UNK         0.0790 
     94 H94        29.9175  -47.0602  -58.4536 H         1 UNK         0.0790 
     95 H95        30.3337  -48.5932  -57.7004 H         1 UNK         0.0790 
     96 H96        28.3196  -49.8615  -56.9165 H         1 UNK         0.3215 
     97 H97        25.6485  -52.1472  -57.5777 H         1 UNK         0.0863 
     98 H98        27.3758  -53.6382  -56.5372 H         1 UNK         0.0808 
     99 H99        28.6385  -52.4940  -56.9930 H         1 UNK         0.0808 
    100 H100       27.7120  -53.3227  -58.2320 H         1 UNK         0.0808 
    101 H101       27.2869  -51.1417  -55.3340 H         1 UNK         0.3118 
    102 H102       24.7072  -49.1218  -54.0273 H         1 UNK         0.0546 
    103 H103       25.5394  -51.8692  -52.9470 H         1 UNK         0.0828 
    104 H104       23.8884  -51.3488  -53.2508 H         1 UNK         0.0828 
    105 H105       24.8349  -50.5537  -52.0055 H         1 UNK         0.0828 
    106 H106       27.1948  -50.0126  -52.9230 H         1 UNK         0.3005 
    107 H107       29.2654  -47.5829  -54.4876 H         1 UNK         0.1257 
    108 H108       28.1796  -47.7314  -51.6268 H         1 UNK         0.0775 
    109 H109       28.1270  -46.3309  -52.6637 H         1 UNK         0.0775 
    110 H110       29.0586  -44.8198  -51.1396 H         1 UNK         0.0840 
    111 H111       30.6642  -44.8021  -50.4768 H         1 UNK         0.0840 
    112 H112       30.0536  -49.3740  -52.5663 H         1 UNK         0.2987 
    113 H113       30.4645  -51.8138  -52.9392 H         1 UNK         0.0785 
    114 H114       29.9792  -53.0700  -55.0178 H         1 UNK         0.0798 
    115 H115       31.6609  -53.2932  -54.5679 H         1 UNK         0.0798 
    116 H116       31.2403  -52.2003  -55.8851 H         1 UNK         0.0798 
    117 H117       32.5850  -50.4744  -54.5832 H         1 UNK         0.3079 
    118 H118       34.1917  -49.2017  -51.6694 H         1 UNK         0.0794 
    119 H119       36.0520  -49.8809  -53.1344 H         1 UNK         0.0786 
    120 H120       34.9560  -50.7624  -54.1941 H         1 UNK         0.0786 
    121 H121       35.2040  -51.2995  -52.5400 H         1 UNK         0.0786 
    122 H122       34.0374  -47.4441  -52.9343 H         1 UNK         0.3032 
    123 H123       33.9616  -46.7204  -56.3315 H         1 UNK         0.1094 
    124 H124       31.6114  -46.1202  -54.4531 H         1 UNK         0.0794 
    125 H125       31.4838  -46.8594  -56.0414 H         1 UNK         0.0794 
    126 H126       32.0415  -45.2016  -55.8922 H         1 UNK         0.0794 
    127 H127       33.7890  -45.0818  -53.9686 H         1 UNK         0.3016 
@<TRIPOS>BOND
     1    1    2 1    
     2    1   67 1    
     3    1   68 1    
     4    1   69 1    
     5    2    3 2    
     6    2    4 am   BACKBONE|DICT|INTERRES
     7    4    5 1    
     8    4   70 1    
     9    5    6 1    
    10    5   65 1    
    11    5   71 1    
    12    6    7 1    
    13    6   72 1    
    14    6   73 1    
    15    7    8 1    
    16    8    9 1    
    17    8   74 1    
    18    8   75 1    
    19    9   10 ar   
    20    9   14 ar   
    21   10   11 ar   
    22   10   76 1    
    23   11   12 ar   
    24   11   48 1    
    25   12   13 ar   
    26   12   77 1    
    27   13   14 ar   
    28   13   15 1    
    29   14   78 1    
    30   15   16 1    
    31   15   79 1    
    32   15   80 1    
    33   16   17 1    
    34   17   18 1    
    35   17   81 1    
    36   17   82 1    
    37   18   19 1    
    38   18   22 1    
    39   18   83 1    
    40   19   20 am   BACKBONE|DICT|INTERRES
    41   19   21 2    
    42   20   84 1    
    43   20   85 1    
    44   22   23 am   BACKBONE|DICT|INTERRES
    45   22   86 1    
    46   23   24 2    
    47   23   25 1    
    48   25   26 1    
    49   25   27 1    
    50   25   87 1    
    51   26   88 1    
    52   26   89 1    
    53   26   90 1    
    54   27   28 am   BACKBONE|DICT|INTERRES
    55   27   91 1    
    56   28   29 2    
    57   28   30 1    
    58   30   31 1    
    59   30   32 1    
    60   30   92 1    
    61   31   93 1    
    62   31   94 1    
    63   31   95 1    
    64   32   33 am   BACKBONE|DICT|INTERRES
    65   32   96 1    
    66   33   34 2    
    67   33   35 1    
    68   35   36 1    
    69   35   37 1    
    70   35   97 1    
    71   36   98 1    
    72   36   99 1    
    73   36  100 1    
    74   37   38 am   BACKBONE|DICT|INTERRES
    75   37  101 1    
    76   38   39 2    
    77   38   40 1    
    78   40   41 1    
    79   40   42 1    
    80   40  102 1    
    81   41  103 1    
    82   41  104 1    
    83   41  105 1    
    84   42   43 am   BACKBONE|DICT|INTERRES
    85   42  106 1    
    86   43   44 2    
    87   43   45 1    
    88   45   46 1    
    89   45   49 1    
    90   45  107 1    
    91   46   47 1    
    92   46  108 1    
    93   46  109 1    
    94   47   48 1    
    95   48  110 1    
    96   48  111 1    
    97   49   50 am   BACKBONE|DICT|INTERRES
    98   49  112 1    
    99   50   51 2    
   100   50   52 1    
   101   52   53 1    
   102   52   54 1    
   103   52  113 1    
   104   53  114 1    
   105   53  115 1    
   106   53  116 1    
   107   54   55 am   BACKBONE|DICT|INTERRES
   108   54  117 1    
   109   55   56 2    
   110   55   57 1    
   111   57   58 1    
   112   57   59 1    
   113   57  118 1    
   114   58  119 1    
   115   58  120 1    
   116   58  121 1    
   117   59   60 am   BACKBONE|DICT|INTERRES
   118   59  122 1    
   119   60   61 2    
   120   60   62 1    
   121   62   63 1    
   122   62   64 1    
   123   62  123 1    
   124   63  124 1    
   125   63  125 1    
   126   63  126 1    
   127   64   65 am   BACKBONE|DICT|INTERRES
   128   64  127 1    
   129   65   66 2    
@<TRIPOS>SUBSTRUCTURE
     1 UNK         1 GROUP             0       ****    0 ROOT    
