@<TRIPOS>MOLECULE
3R134
127   129    1
SMALL
USER_CHARGES


@<TRIPOS>ATOM
      1 CA         33.5012  -41.2658  -58.8779 C.3       0 UNK        -0.1968 
      2 C          32.8351  -42.5562  -58.4230 C.2       0 UNK         0.4852 
      3 O          31.9446  -43.0577  -59.1123 O.2       0 UNK        -0.5359 
      4 N          33.2578  -43.0887  -57.2708 N.am      1 UNK        -0.4300 
      5 CA         32.7772  -44.3486  -56.7017 C.3       1 UNK         0.0863 
      6 C6         32.3982  -44.1897  -55.2035 C.3       11 UNK        -0.0953 
      7 S7         33.8096  -43.9053  -54.0754 S.3       11 UNK        -0.2369 
      8 C8         33.0406  -42.9233  -52.7499 C.3       11 UNK         0.0226 
      9 C9         31.8372  -43.6220  -52.1305 C.ar      11 UNK        -0.0699 
     10 C10        32.0027  -44.7745  -51.3556 C.ar      11 UNK        -0.0804 
     11 C11        30.8960  -45.4054  -50.7785 C.ar      11 UNK        -0.0871 
     12 C12        29.6182  -44.8759  -50.9852 C.ar      11 UNK        -0.1008 
     13 C13        29.4363  -43.7310  -51.7656 C.ar      11 UNK        -0.0735 
     14 C14        30.5544  -43.1031  -52.3252 C.ar      11 UNK        -0.0945 
     15 C15        28.0301  -43.1703  -51.9625 C.3       11 UNK         0.0169 
     16 S16        27.7021  -42.5669  -53.6520 S.3       11 UNK        -0.2669 
     17 C17        27.9153  -44.0936  -54.6271 C.3       11 UNK        -0.0850 
     18 CA         27.6499  -43.8683  -56.1408 C.3       10 UNK         0.0855 
     19 C          28.9079  -43.3468  -56.9038 C.2       10 UNK         0.5543 
     20 N          29.3878  -44.0147  -57.9472 N.am      10 UNK        -0.7343 
     21 O          29.4532  -42.3047  -56.5522 O.2       10 UNK        -0.5027 
     22 N          27.0245  -45.0542  -56.7420 N.am      10 UNK        -0.4495 
     23 C          26.2638  -45.0326  -57.8455 C.2       10 UNK         0.4903 
     24 O          25.9145  -43.9966  -58.4136 O.2       10 UNK        -0.4860 
     25 CA         25.8235  -46.3975  -58.4104 C.3       9 UNK         0.0227 
     26 CB         25.4925  -46.3430  -59.9172 C.3       9 UNK        -0.1964 
     27 N          26.7765  -47.4765  -58.1242 N.am      9 UNK        -0.4231 
     28 C          28.0633  -47.5586  -58.5067 C.2       9 UNK         0.5014 
     29 O          28.6216  -46.7013  -59.1926 O.2       9 UNK        -0.5270 
     30 CA         28.8868  -48.7627  -58.0023 C.3       8 UNK         0.0284 
     31 CB         30.2139  -48.2823  -57.3792 C.3       8 UNK        -0.1977 
     32 N          28.1349  -49.5616  -57.0260 N.am      8 UNK        -0.4342 
     33 C          27.3210  -50.5836  -57.3391 C.2       8 UNK         0.5039 
     34 O          27.2673  -51.0852  -58.4618 O.2       8 UNK        -0.5547 
     35 CA         26.3504  -51.0934  -56.2535 C.3       7 UNK         0.0281 
     36 CB         26.6334  -52.5478  -55.8403 C.3       7 UNK        -0.1963 
     37 N          26.3138  -50.2401  -55.0630 N.am      7 UNK        -0.4444 
     38 C          25.6202  -49.0957  -54.9779 C.2       7 UNK         0.5104 
     39 O          24.9098  -48.6626  -55.8845 O.2       7 UNK        -0.5100 
     40 CA         25.8099  -48.2567  -53.7012 C.3       6 UNK         0.0396 
     41 CB         24.8055  -48.6824  -52.6199 C.3       6 UNK        -0.1801 
     42 N          27.1722  -48.3334  -53.1644 N.am      6 UNK        -0.4747 
     43 C          28.2679  -47.9191  -53.8174 C.2       6 UNK         0.5012 
     44 O          28.2214  -47.3801  -54.9246 O.2       6 UNK        -0.5003 
     45 CA         29.6393  -48.1799  -53.1616 C.3       5 UNK         0.0782 
     46 C46        29.5780  -48.3308  -51.6166 C.3       11 UNK        -0.0868 
     47 S47        31.2384  -48.1707  -50.8760 S.3       11 UNK        -0.2515 
     48 C48        31.0831  -46.6379  -49.9032 C.3       11 UNK         0.0199 
     49 N          30.3406  -49.3042  -53.7999 N.am      5 UNK        -0.4607 
     50 C          29.9177  -50.5756  -53.9078 C.2       4 UNK         0.5031 
     51 O          28.7830  -50.9406  -53.5977 O.2       4 UNK        -0.5119 
     52 CA         30.9147  -51.6362  -54.4276 C.3       4 UNK         0.0263 
     53 CB         30.5691  -52.1004  -55.8522 C.3       4 UNK        -0.1967 
     54 N          32.3079  -51.1900  -54.4068 N.am      4 UNK        -0.4237 
     55 C          33.0603  -51.0625  -53.3052 C.2       3 UNK         0.4908 
     56 O          32.7040  -51.4420  -52.1893 O.2       3 UNK        -0.5102 
     57 CA         34.4404  -50.3890  -53.4641 C.3       3 UNK         0.0241 
     58 CB         35.5619  -51.4366  -53.3631 C.3       3 UNK        -0.1971 
     59 N          34.6304  -49.6035  -54.6946 N.am      3 UNK        -0.4139 
     60 C          33.8756  -48.5661  -55.0816 C.2       2 UNK         0.5016 
     61 O          32.8662  -48.1910  -54.4768 O.2       2 UNK        -0.5319 
     62 CA         34.2816  -47.8563  -56.3800 C.3       2 UNK         0.0286 
     63 CB         34.0932  -48.7598  -57.6121 C.3       2 UNK        -0.1963 
     64 N          33.4296  -46.6806  -56.4991 N.am      2 UNK        -0.4790 
     65 C          33.7954  -45.4802  -56.9499 C.2       1 UNK         0.5024 
     66 O          34.8768  -45.2539  -57.5003 O.2       1 UNK        -0.4888 
     67 H67        34.2623  -40.9290  -58.1741 H         1 UNK         0.0892 
     68 H68        33.9762  -41.4109  -59.8478 H         1 UNK         0.0892 
     69 H69        32.7574  -40.4756  -58.9766 H         1 UNK         0.0892 
     70 H70        34.0254  -42.6621  -56.7716 H         1 UNK         0.3107 
     71 H71        31.8719  -44.6598  -57.2229 H         1 UNK         0.0773 
     72 H72        31.8590  -45.0703  -54.8496 H         1 UNK         0.0680 
     73 H73        31.6936  -43.3627  -55.1024 H         1 UNK         0.0680 
     74 H74        32.7604  -41.9483  -53.1518 H         1 UNK         0.0650 
     75 H75        33.7842  -42.7330  -51.9750 H         1 UNK         0.0650 
     76 H76        32.9941  -45.1787  -51.2019 H         1 UNK         0.1397 
     77 H77        28.7608  -45.3501  -50.5277 H         1 UNK         0.1363 
     78 H78        30.4254  -42.2085  -52.9189 H         1 UNK         0.1355 
     79 H79        27.8851  -42.3457  -51.2636 H         1 UNK         0.0707 
     80 H80        27.2786  -43.9218  -51.7147 H         1 UNK         0.0707 
     81 H81        28.9084  -44.5148  -54.4582 H         1 UNK         0.1034 
     82 H82        27.2122  -44.8232  -54.2217 H         1 UNK         0.1034 
     83 H83        26.9133  -43.0668  -56.2254 H         1 UNK         0.0482 
     84 H84        30.2044  -43.6480  -58.4260 H         1 UNK         0.3460 
     85 H85        28.9548  -44.8687  -58.2776 H         1 UNK         0.3460 
     86 H86        27.2909  -45.9462  -56.3430 H         1 UNK         0.2989 
     87 H87        24.9056  -46.6581  -57.8820 H         1 UNK         0.0559 
     88 H88        24.6792  -45.6437  -60.1151 H         1 UNK         0.0848 
     89 H89        25.1765  -47.3172  -60.2900 H         1 UNK         0.0848 
     90 H90        26.3494  -46.0188  -60.5087 H         1 UNK         0.0848 
     91 H91        26.4121  -48.2097  -57.5298 H         1 UNK         0.3144 
     92 H92        29.1278  -49.3813  -58.8690 H         1 UNK         0.0727 
     93 H93        30.0635  -47.4975  -56.6390 H         1 UNK         0.0790 
     94 H94        30.8688  -47.8669  -58.1462 H         1 UNK         0.0790 
     95 H95        30.7585  -49.0901  -56.8966 H         1 UNK         0.0790 
     96 H96        28.0978  -49.1785  -56.0891 H         1 UNK         0.3215 
     97 H97        25.3602  -51.0838  -56.7151 H         1 UNK         0.0863 
     98 H98        25.7744  -52.9756  -55.3235 H         1 UNK         0.0808 
     99 H99        27.4848  -52.6288  -55.1680 H         1 UNK         0.0808 
    100 H100       26.8320  -53.1793  -56.7075 H         1 UNK         0.0808 
    101 H101       26.9385  -50.4958  -54.3027 H         1 UNK         0.3118 
    102 H102       25.6121  -47.2139  -53.9590 H         1 UNK         0.0546 
    103 H103       24.9663  -49.7127  -52.2999 H         1 UNK         0.0828 
    104 H104       23.7817  -48.6125  -52.9903 H         1 UNK         0.0828 
    105 H105       24.8735  -48.0420  -51.7403 H         1 UNK         0.0828 
    106 H106       27.2865  -48.8080  -52.2803 H         1 UNK         0.3005 
    107 H107       30.2313  -47.2890  -53.3822 H         1 UNK         0.1257 
    108 H108       28.9171  -47.5878  -51.1704 H         1 UNK         0.0775 
    109 H109       29.1717  -49.3028  -51.3320 H         1 UNK         0.0775 
    110 H110       30.2571  -46.7387  -49.1973 H         1 UNK         0.0840 
    111 H111       31.9817  -46.5180  -49.2961 H         1 UNK         0.0840 
    112 H112       31.2924  -49.0824  -54.0840 H         1 UNK         0.2987 
    113 H113       30.8272  -52.5006  -53.7659 H         1 UNK         0.0785 
    114 H114       29.5667  -52.5190  -55.9000 H         1 UNK         0.0798 
    115 H115       31.2508  -52.8826  -56.1870 H         1 UNK         0.0798 
    116 H116       30.6158  -51.2894  -56.5761 H         1 UNK         0.0798 
    117 H117       32.6934  -50.8635  -55.2799 H         1 UNK         0.3079 
    118 H118       34.5440  -49.6969  -52.6256 H         1 UNK         0.0794 
    119 H119       36.5459  -50.9672  -53.3526 H         1 UNK         0.0786 
    120 H120       35.5322  -52.1402  -54.1961 H         1 UNK         0.0786 
    121 H121       35.4748  -52.0172  -52.4434 H         1 UNK         0.0786 
    122 H122       35.4283  -49.8544  -55.2611 H         1 UNK         0.3032 
    123 H123       35.3277  -47.5532  -56.2923 H         1 UNK         0.1094 
    124 H124       33.0741  -49.1384  -57.6882 H         1 UNK         0.0794 
    125 H125       34.3160  -48.2202  -58.5329 H         1 UNK         0.0794 
    126 H126       34.7604  -49.6216  -57.5775 H         1 UNK         0.0794 
    127 H127       32.5734  -46.7648  -55.9642 H         1 UNK         0.3016 
@<TRIPOS>BOND
     1    1    2 1    
     2    1   67 1    
     3    1   68 1    
     4    1   69 1    
     5    2    3 2    
     6    2    4 am   BACKBONE|DICT|INTERRES
     7    4    5 1    
     8    4   70 1    
     9    5    6 1    
    10    5   65 1    
    11    5   71 1    
    12    6    7 1    
    13    6   72 1    
    14    6   73 1    
    15    7    8 1    
    16    8    9 1    
    17    8   74 1    
    18    8   75 1    
    19    9   10 ar   
    20    9   14 ar   
    21   10   11 ar   
    22   10   76 1    
    23   11   12 ar   
    24   11   48 1    
    25   12   13 ar   
    26   12   77 1    
    27   13   14 ar   
    28   13   15 1    
    29   14   78 1    
    30   15   16 1    
    31   15   79 1    
    32   15   80 1    
    33   16   17 1    
    34   17   18 1    
    35   17   81 1    
    36   17   82 1    
    37   18   19 1    
    38   18   22 1    
    39   18   83 1    
    40   19   20 am   BACKBONE|DICT|INTERRES
    41   19   21 2    
    42   20   84 1    
    43   20   85 1    
    44   22   23 am   BACKBONE|DICT|INTERRES
    45   22   86 1    
    46   23   24 2    
    47   23   25 1    
    48   25   26 1    
    49   25   27 1    
    50   25   87 1    
    51   26   88 1    
    52   26   89 1    
    53   26   90 1    
    54   27   28 am   BACKBONE|DICT|INTERRES
    55   27   91 1    
    56   28   29 2    
    57   28   30 1    
    58   30   31 1    
    59   30   32 1    
    60   30   92 1    
    61   31   93 1    
    62   31   94 1    
    63   31   95 1    
    64   32   33 am   BACKBONE|DICT|INTERRES
    65   32   96 1    
    66   33   34 2    
    67   33   35 1    
    68   35   36 1    
    69   35   37 1    
    70   35   97 1    
    71   36   98 1    
    72   36   99 1    
    73   36  100 1    
    74   37   38 am   BACKBONE|DICT|INTERRES
    75   37  101 1    
    76   38   39 2    
    77   38   40 1    
    78   40   41 1    
    79   40   42 1    
    80   40  102 1    
    81   41  103 1    
    82   41  104 1    
    83   41  105 1    
    84   42   43 am   BACKBONE|DICT|INTERRES
    85   42  106 1    
    86   43   44 2    
    87   43   45 1    
    88   45   46 1    
    89   45   49 1    
    90   45  107 1    
    91   46   47 1    
    92   46  108 1    
    93   46  109 1    
    94   47   48 1    
    95   48  110 1    
    96   48  111 1    
    97   49   50 am   BACKBONE|DICT|INTERRES
    98   49  112 1    
    99   50   51 2    
   100   50   52 1    
   101   52   53 1    
   102   52   54 1    
   103   52  113 1    
   104   53  114 1    
   105   53  115 1    
   106   53  116 1    
   107   54   55 am   BACKBONE|DICT|INTERRES
   108   54  117 1    
   109   55   56 2    
   110   55   57 1    
   111   57   58 1    
   112   57   59 1    
   113   57  118 1    
   114   58  119 1    
   115   58  120 1    
   116   58  121 1    
   117   59   60 am   BACKBONE|DICT|INTERRES
   118   59  122 1    
   119   60   61 2    
   120   60   62 1    
   121   62   63 1    
   122   62   64 1    
   123   62  123 1    
   124   63  124 1    
   125   63  125 1    
   126   63  126 1    
   127   64   65 am   BACKBONE|DICT|INTERRES
   128   64  127 1    
   129   65   66 2    
@<TRIPOS>SUBSTRUCTURE
     1 UNK         1 GROUP             0       ****    0 ROOT    
