@<TRIPOS>MOLECULE
3R134
127   129    1
SMALL
USER_CHARGES


@<TRIPOS>ATOM
      1 CA         32.1881  -47.4486  -59.8693 C.3       0 UNK        -0.1968 
      2 C          32.9390  -47.1168  -58.5881 C.2       0 UNK         0.4852 
      3 O          34.0447  -46.5789  -58.6525 O.2       0 UNK        -0.5359 
      4 N          32.3420  -47.4466  -57.4356 N.am      1 UNK        -0.4300 
      5 CA         32.9061  -47.3499  -56.0866 C.3       1 UNK         0.0863 
      6 C6         33.3815  -45.9217  -55.7030 C.3       11 UNK        -0.0953 
      7 S7         33.3945  -45.6537  -53.9008 S.3       11 UNK        -0.2369 
      8 C8         33.3764  -43.8391  -53.8064 C.3       11 UNK         0.0226 
      9 C9         31.9642  -43.2763  -53.8733 C.ar      11 UNK        -0.0699 
     10 C10        31.1405  -43.3330  -52.7459 C.ar      11 UNK        -0.0804 
     11 C11        29.8554  -42.7773  -52.7679 C.ar      11 UNK        -0.0871 
     12 C12        29.4079  -42.1457  -53.9326 C.ar      11 UNK        -0.1008 
     13 C13        30.2265  -42.0719  -55.0641 C.ar      11 UNK        -0.0735 
     14 C14        31.4986  -42.6520  -55.0337 C.ar      11 UNK        -0.0945 
     15 C15        29.7617  -41.3189  -56.3020 C.3       11 UNK         0.0169 
     16 S16        28.8804  -42.4019  -57.4634 S.3       11 UNK        -0.2669 
     17 C17        27.2336  -42.5309  -56.6742 C.3       11 UNK        -0.0850 
     18 CA         26.0918  -42.7997  -57.6910 C.3       10 UNK         0.0855 
     19 C          25.7164  -41.5284  -58.5094 C.2       10 UNK         0.5543 
     20 N          25.8392  -41.5248  -59.8312 N.am      10 UNK        -0.7343 
     21 O          25.2928  -40.5310  -57.9305 O.2       10 UNK        -0.5027 
     22 N          26.3907  -43.9996  -58.4822 N.am      10 UNK        -0.4495 
     23 C          25.5189  -44.7538  -59.1609 C.2       10 UNK         0.4903 
     24 O          24.3113  -44.5257  -59.2286 O.2       10 UNK        -0.4860 
     25 CA         26.1056  -45.9840  -59.8794 C.3       9 UNK         0.0227 
     26 CB         26.4064  -45.6539  -61.3506 C.3       9 UNK        -0.1964 
     27 N          27.3259  -46.4833  -59.2310 N.am      9 UNK        -0.4231 
     28 C          27.3374  -47.1291  -58.0573 C.2       9 UNK         0.5014 
     29 O          26.3196  -47.4689  -57.4476 O.2       9 UNK        -0.5270 
     30 CA         28.7137  -47.4106  -57.4444 C.3       8 UNK         0.0284 
     31 CB         29.1858  -46.2145  -56.5960 C.3       8 UNK        -0.1977 
     32 N          28.5882  -48.5873  -56.5948 N.am      8 UNK        -0.4342 
     33 C          29.4726  -49.5831  -56.4918 C.2       8 UNK         0.5039 
     34 O          30.5841  -49.5712  -57.0273 O.2       8 UNK        -0.5547 
     35 CA         29.0351  -50.7783  -55.6350 C.3       7 UNK         0.0281 
     36 CB         30.1577  -51.8022  -55.4057 C.3       7 UNK        -0.1963 
     37 N          28.5512  -50.2934  -54.3446 N.am      7 UNK        -0.4444 
     38 C          27.3320  -50.5292  -53.8438 C.2       7 UNK         0.5104 
     39 O          26.4894  -51.2360  -54.3979 O.2       7 UNK        -0.5100 
     40 CA         26.9738  -49.8647  -52.5014 C.3       6 UNK         0.0396 
     41 CB         27.1034  -50.8809  -51.3555 C.3       6 UNK        -0.1801 
     42 N          27.7843  -48.6880  -52.1826 N.am      6 UNK        -0.4747 
     43 C          27.7855  -47.5262  -52.8543 C.2       6 UNK         0.5012 
     44 O          27.0571  -47.2926  -53.8180 O.2       6 UNK        -0.5003 
     45 CA         28.7716  -46.4454  -52.3591 C.3       5 UNK         0.0782 
     46 C46        28.0128  -45.4501  -51.4400 C.3       11 UNK        -0.0868 
     47 S47        29.0816  -44.2902  -50.5202 S.3       11 UNK        -0.2515 
     48 C48        28.9722  -42.7702  -51.5224 C.3       11 UNK         0.0199 
     49 N          29.9697  -46.9989  -51.7098 N.am      5 UNK        -0.4607 
     50 C          30.8463  -47.8587  -52.2459 C.2       4 UNK         0.5031 
     51 O          30.7110  -48.3634  -53.3642 O.2       4 UNK        -0.5119 
     52 CA         32.0831  -48.1918  -51.3849 C.3       4 UNK         0.0263 
     53 CB         31.7609  -48.3129  -49.8771 C.3       4 UNK        -0.1967 
     54 N          32.8001  -49.3787  -51.8663 N.am      4 UNK        -0.4237 
     55 C          32.3458  -50.6405  -51.9025 C.2       3 UNK         0.4908 
     56 O          31.2524  -51.0011  -51.4626 O.2       3 UNK        -0.5102 
     57 CA         33.2628  -51.6460  -52.6103 C.3       3 UNK         0.0241 
     58 CB         32.7113  -53.0872  -52.6023 C.3       3 UNK        -0.1971 
     59 N          33.4556  -51.1814  -53.9805 N.am      3 UNK        -0.4139 
     60 C          34.4727  -51.4897  -54.7908 C.2       2 UNK         0.5016 
     61 O          35.4125  -52.2178  -54.4693 O.2       2 UNK        -0.5319 
     62 CA         34.4315  -50.8866  -56.2068 C.3       2 UNK         0.0286 
     63 CB         33.9352  -51.9292  -57.2214 C.3       2 UNK        -0.1963 
     64 N          33.5874  -49.6901  -56.3044 N.am      2 UNK        -0.4790 
     65 C          33.9414  -48.4732  -55.8618 C.2       1 UNK         0.5024 
     66 O          35.0224  -48.2408  -55.3186 O.2       1 UNK        -0.4888 
     67 H67        32.8624  -47.9071  -60.5922 H         1 UNK         0.0892 
     68 H68        31.3684  -48.1445  -59.6910 H         1 UNK         0.0892 
     69 H69        31.7799  -46.5404  -60.3115 H         1 UNK         0.0892 
     70 H70        31.4850  -47.9951  -57.4699 H         1 UNK         0.3107 
     71 H71        32.0726  -47.5976  -55.4299 H         1 UNK         0.0773 
     72 H72        34.3717  -45.7063  -56.1078 H         1 UNK         0.0680 
     73 H73        32.7060  -45.1854  -56.1408 H         1 UNK         0.0680 
     74 H74        34.0030  -43.4226  -54.5967 H         1 UNK         0.0650 
     75 H75        33.8366  -43.5365  -52.8648 H         1 UNK         0.0650 
     76 H76        31.5145  -43.7978  -51.8443 H         1 UNK         0.1397 
     77 H77        28.4303  -41.6839  -53.9513 H         1 UNK         0.1363 
     78 H78        32.1366  -42.5913  -55.9048 H         1 UNK         0.1355 
     79 H79        30.6235  -40.8899  -56.8156 H         1 UNK         0.0707 
     80 H80        29.1294  -40.4743  -56.0241 H         1 UNK         0.0707 
     81 H81        27.2742  -43.3438  -55.9472 H         1 UNK         0.1034 
     82 H82        27.0238  -41.6304  -56.0941 H         1 UNK         0.1034 
     83 H83        25.1990  -43.0309  -57.1069 H         1 UNK         0.0482 
     84 H84        26.1845  -42.3397  -60.3109 H         1 UNK         0.3460 
     85 H85        25.5882  -40.6983  -60.3502 H         1 UNK         0.3460 
     86 H86        27.3672  -44.2502  -58.5124 H         1 UNK         0.2989 
     87 H87        25.3517  -46.7740  -59.8549 H         1 UNK         0.0559 
     88 H88        27.1647  -44.8759  -61.4472 H         1 UNK         0.0848 
     89 H89        25.5097  -45.2993  -61.8612 H         1 UNK         0.0848 
     90 H90        26.7564  -46.5335  -61.8912 H         1 UNK         0.0848 
     91 H91        28.2037  -46.2589  -59.6779 H         1 UNK         0.3144 
     92 H92        29.4248  -47.6042  -58.2490 H         1 UNK         0.0727 
     93 H93        29.4530  -45.3676  -57.2278 H         1 UNK         0.0790 
     94 H94        30.0619  -46.4599  -55.9978 H         1 UNK         0.0790 
     95 H95        28.4096  -45.8773  -55.9072 H         1 UNK         0.0790 
     96 H96        27.6839  -48.6740  -56.1445 H         1 UNK         0.3215 
     97 H97        28.2364  -51.2755  -56.1893 H         1 UNK         0.0863 
     98 H98        30.9875  -51.3549  -54.8654 H         1 UNK         0.0808 
     99 H99        30.5406  -52.1861  -56.3517 H         1 UNK         0.0808 
    100 H100       29.8027  -52.6555  -54.8279 H         1 UNK         0.0808 
    101 H101       29.1742  -49.6624  -53.8474 H         1 UNK         0.3118 
    102 H102       25.9314  -49.5451  -52.5621 H         1 UNK         0.0546 
    103 H103       28.1333  -51.2205  -51.2335 H         1 UNK         0.0828 
    104 H104       26.4900  -51.7631  -51.5440 H         1 UNK         0.0828 
    105 H105       26.7734  -50.4567  -50.4071 H         1 UNK         0.0828 
    106 H106       28.4313  -48.7828  -51.4127 H         1 UNK         0.3005 
    107 H107       29.1187  -45.9019  -53.2412 H         1 UNK         0.1257 
    108 H108       27.4372  -45.9927  -50.6868 H         1 UNK         0.0775 
    109 H109       27.2806  -44.8855  -52.0205 H         1 UNK         0.0775 
    110 H110       27.9288  -42.5882  -51.7849 H         1 UNK         0.0840 
    111 H111       29.2786  -41.9292  -50.8991 H         1 UNK         0.0840 
    112 H112       30.1661  -46.6199  -50.7946 H         1 UNK         0.2987 
    113 H113       32.7735  -47.3567  -51.5073 H         1 UNK         0.0785 
    114 H114       31.4571  -47.3552  -49.4537 H         1 UNK         0.0798 
    115 H115       32.6341  -48.6413  -49.3133 H         1 UNK         0.0798 
    116 H116       30.9575  -49.0256  -49.6871 H         1 UNK         0.0798 
    117 H117       33.6986  -49.1930  -52.2902 H         1 UNK         0.3079 
    118 H118       34.2222  -51.6364  -52.0886 H         1 UNK         0.0794 
    119 H119       32.5532  -53.4379  -51.5817 H         1 UNK         0.0786 
    120 H120       33.4034  -53.7818  -53.0782 H         1 UNK         0.0786 
    121 H121       31.7563  -53.1567  -53.1237 H         1 UNK         0.0786 
    122 H122       32.7509  -50.5459  -54.3295 H         1 UNK         0.3032 
    123 H123       35.4554  -50.6120  -56.4715 H         1 UNK         0.1094 
    124 H124       34.5590  -52.8239  -57.1989 H         1 UNK         0.0794 
    125 H125       32.9113  -52.2407  -57.0135 H         1 UNK         0.0794 
    126 H126       33.9673  -51.5391  -58.2389 H         1 UNK         0.0794 
    127 H127       32.6719  -49.8005  -56.7302 H         1 UNK         0.3016 
@<TRIPOS>BOND
     1    1    2 1    
     2    1   67 1    
     3    1   68 1    
     4    1   69 1    
     5    2    3 2    
     6    2    4 am   BACKBONE|DICT|INTERRES
     7    4    5 1    
     8    4   70 1    
     9    5    6 1    
    10    5   65 1    
    11    5   71 1    
    12    6    7 1    
    13    6   72 1    
    14    6   73 1    
    15    7    8 1    
    16    8    9 1    
    17    8   74 1    
    18    8   75 1    
    19    9   10 ar   
    20    9   14 ar   
    21   10   11 ar   
    22   10   76 1    
    23   11   12 ar   
    24   11   48 1    
    25   12   13 ar   
    26   12   77 1    
    27   13   14 ar   
    28   13   15 1    
    29   14   78 1    
    30   15   16 1    
    31   15   79 1    
    32   15   80 1    
    33   16   17 1    
    34   17   18 1    
    35   17   81 1    
    36   17   82 1    
    37   18   19 1    
    38   18   22 1    
    39   18   83 1    
    40   19   20 am   BACKBONE|DICT|INTERRES
    41   19   21 2    
    42   20   84 1    
    43   20   85 1    
    44   22   23 am   BACKBONE|DICT|INTERRES
    45   22   86 1    
    46   23   24 2    
    47   23   25 1    
    48   25   26 1    
    49   25   27 1    
    50   25   87 1    
    51   26   88 1    
    52   26   89 1    
    53   26   90 1    
    54   27   28 am   BACKBONE|DICT|INTERRES
    55   27   91 1    
    56   28   29 2    
    57   28   30 1    
    58   30   31 1    
    59   30   32 1    
    60   30   92 1    
    61   31   93 1    
    62   31   94 1    
    63   31   95 1    
    64   32   33 am   BACKBONE|DICT|INTERRES
    65   32   96 1    
    66   33   34 2    
    67   33   35 1    
    68   35   36 1    
    69   35   37 1    
    70   35   97 1    
    71   36   98 1    
    72   36   99 1    
    73   36  100 1    
    74   37   38 am   BACKBONE|DICT|INTERRES
    75   37  101 1    
    76   38   39 2    
    77   38   40 1    
    78   40   41 1    
    79   40   42 1    
    80   40  102 1    
    81   41  103 1    
    82   41  104 1    
    83   41  105 1    
    84   42   43 am   BACKBONE|DICT|INTERRES
    85   42  106 1    
    86   43   44 2    
    87   43   45 1    
    88   45   46 1    
    89   45   49 1    
    90   45  107 1    
    91   46   47 1    
    92   46  108 1    
    93   46  109 1    
    94   47   48 1    
    95   48  110 1    
    96   48  111 1    
    97   49   50 am   BACKBONE|DICT|INTERRES
    98   49  112 1    
    99   50   51 2    
   100   50   52 1    
   101   52   53 1    
   102   52   54 1    
   103   52  113 1    
   104   53  114 1    
   105   53  115 1    
   106   53  116 1    
   107   54   55 am   BACKBONE|DICT|INTERRES
   108   54  117 1    
   109   55   56 2    
   110   55   57 1    
   111   57   58 1    
   112   57   59 1    
   113   57  118 1    
   114   58  119 1    
   115   58  120 1    
   116   58  121 1    
   117   59   60 am   BACKBONE|DICT|INTERRES
   118   59  122 1    
   119   60   61 2    
   120   60   62 1    
   121   62   63 1    
   122   62   64 1    
   123   62  123 1    
   124   63  124 1    
   125   63  125 1    
   126   63  126 1    
   127   64   65 am   BACKBONE|DICT|INTERRES
   128   64  127 1    
   129   65   66 2    
@<TRIPOS>SUBSTRUCTURE
     1 UNK         1 GROUP             0       ****    0 ROOT    
