@<TRIPOS>MOLECULE
3R134
127   129    1
SMALL
USER_CHARGES


@<TRIPOS>ATOM
      1 CA         34.2141  -46.1497  -52.0980 C.3       0 UNK        -0.1968 
      2 C          33.7698  -46.2282  -53.5504 C.2       0 UNK         0.4852 
      3 O          32.6701  -46.7083  -53.8207 O.2       0 UNK        -0.5359 
      4 N          34.6246  -45.7800  -54.4836 N.am      1 UNK        -0.4300 
      5 CA         34.4295  -45.7051  -55.9441 C.3       1 UNK         0.0863 
      6 C6         33.2404  -44.7958  -56.3649 C.3       11 UNK        -0.0953 
      7 S7         33.7009  -43.0321  -56.4088 S.3       11 UNK        -0.2369 
      8 C8         33.5127  -42.5070  -54.6710 C.3       11 UNK         0.0226 
      9 C9         32.0862  -42.5702  -54.1320 C.ar      11 UNK        -0.0699 
     10 C10        31.8680  -42.9985  -52.8181 C.ar      11 UNK        -0.0804 
     11 C11        30.5796  -43.0109  -52.2765 C.ar      11 UNK        -0.0871 
     12 C12        29.5038  -42.5836  -53.0568 C.ar      11 UNK        -0.1008 
     13 C13        29.7006  -42.1730  -54.3778 C.ar      11 UNK        -0.0735 
     14 C14        30.9947  -42.1590  -54.9068 C.ar      11 UNK        -0.0945 
     15 C15        28.5153  -41.7368  -55.2260 C.3       11 UNK         0.0169 
     16 S16        27.2653  -43.0539  -55.3382 S.3       11 UNK        -0.2669 
     17 C17        26.1094  -42.3516  -56.5657 C.3       11 UNK        -0.0850 
     18 CA         26.1764  -43.0452  -57.9526 C.3       10 UNK         0.0855 
     19 C          27.4172  -42.5985  -58.7754 C.2       10 UNK         0.5543 
     20 N          27.3545  -41.4259  -59.3921 N.am      10 UNK        -0.7343 
     21 O          28.4412  -43.2755  -58.8325 O.2       10 UNK        -0.5027 
     22 N          26.0649  -44.5027  -57.8186 N.am      10 UNK        -0.4495 
     23 C          25.7038  -45.3440  -58.7914 C.2       10 UNK         0.4903 
     24 O          25.3426  -44.9849  -59.9140 O.2       10 UNK        -0.4860 
     25 CA         25.7403  -46.8379  -58.4202 C.3       9 UNK         0.0227 
     26 CB         25.3372  -47.7644  -59.5871 C.3       9 UNK        -0.1964 
     27 N          27.0294  -47.2488  -57.8517 N.am      9 UNK        -0.4231 
     28 C          28.2353  -47.2118  -58.4430 C.2       9 UNK         0.5014 
     29 O          28.4446  -46.7640  -59.5711 O.2       9 UNK        -0.5270 
     30 CA         29.4109  -47.8248  -57.6571 C.3       8 UNK         0.0284 
     31 CB         30.1694  -46.7410  -56.8731 C.3       8 UNK        -0.1977 
     32 N          28.9999  -48.8967  -56.7443 N.am      8 UNK        -0.4342 
     33 C          28.4726  -50.0705  -57.1260 C.2       8 UNK         0.5039 
     34 O          28.3591  -50.4237  -58.3001 O.2       8 UNK        -0.5547 
     35 CA         27.9547  -50.9971  -56.0136 C.3       7 UNK         0.0281 
     36 CB         29.0457  -51.9865  -55.5696 C.3       7 UNK        -0.1963 
     37 N          27.4532  -50.2485  -54.8568 N.am      7 UNK        -0.4444 
     38 C          26.2838  -49.5915  -54.8292 C.2       7 UNK         0.5104 
     39 O          25.4853  -49.5763  -55.7655 O.2       7 UNK        -0.5100 
     40 CA         25.9545  -48.7994  -53.5506 C.3       6 UNK         0.0396 
     41 CB         25.2188  -49.6935  -52.5404 C.3       6 UNK        -0.1801 
     42 N          27.1391  -48.2186  -52.9139 N.am      6 UNK        -0.4747 
     43 C          27.8632  -47.2102  -53.4248 C.2       6 UNK         0.5012 
     44 O          27.5709  -46.6283  -54.4692 O.2       6 UNK        -0.5003 
     45 CA         29.1579  -46.8392  -52.6660 C.3       5 UNK         0.0782 
     46 C46        28.8658  -45.7908  -51.5641 C.3       11 UNK        -0.0868 
     47 S47        30.3814  -45.2770  -50.6795 S.3       11 UNK        -0.2515 
     48 C48        30.3504  -43.4640  -50.8425 C.3       11 UNK         0.0199 
     49 N          29.8324  -48.0241  -52.1155 N.am      5 UNK        -0.4607 
     50 C          30.2968  -49.0475  -52.8386 C.2       4 UNK         0.5031 
     51 O          30.1820  -49.1325  -54.0650 O.2       4 UNK        -0.5119 
     52 CA         30.9258  -50.2048  -52.0576 C.3       4 UNK         0.0263 
     53 CB         29.8371  -51.1072  -51.4452 C.3       4 UNK        -0.1967 
     54 N          31.7394  -50.9618  -52.9965 N.am      4 UNK        -0.4237 
     55 C          32.7036  -51.8424  -52.7109 C.2       3 UNK         0.4908 
     56 O          32.9984  -52.1960  -51.5686 O.2       3 UNK        -0.5102 
     57 CA         33.4810  -52.4231  -53.9096 C.3       3 UNK         0.0241 
     58 CB         32.9116  -53.7970  -54.3003 C.3       3 UNK        -0.1971 
     59 N          33.4741  -51.5464  -55.0881 N.am      3 UNK        -0.4139 
     60 C          34.0598  -50.3416  -55.1434 C.2       2 UNK         0.5016 
     61 O          34.7531  -49.8836  -54.2312 O.2       2 UNK        -0.5319 
     62 CA         33.8187  -49.4978  -56.4062 C.3       2 UNK         0.0286 
     63 CB         32.5099  -49.8389  -57.1468 C.3       2 UNK        -0.1963 
     64 N          33.7994  -48.0924  -56.0116 N.am      2 UNK        -0.4790 
     65 C          34.3895  -47.0812  -56.6510 C.2       1 UNK         0.5024 
     66 O          34.9297  -47.2039  -57.7515 O.2       1 UNK        -0.4888 
     67 H67        33.4444  -45.6658  -51.4973 H         1 UNK         0.0892 
     68 H68        34.3719  -47.1530  -51.7031 H         1 UNK         0.0892 
     69 H69        35.1394  -45.5859  -51.9827 H         1 UNK         0.0892 
     70 H70        35.5291  -45.4505  -54.1763 H         1 UNK         0.3107 
     71 H71        35.3447  -45.2434  -56.3189 H         1 UNK         0.0773 
     72 H72        32.9054  -45.0372  -57.3755 H         1 UNK         0.0680 
     73 H73        32.3671  -44.9379  -55.7275 H         1 UNK         0.0680 
     74 H74        33.8580  -41.4758  -54.5900 H         1 UNK         0.0650 
     75 H75        34.1861  -43.0992  -54.0515 H         1 UNK         0.0650 
     76 H76        32.7028  -43.3139  -52.2079 H         1 UNK         0.1397 
     77 H77        28.5043  -42.5826  -52.6437 H         1 UNK         0.1363 
     78 H78        31.1536  -41.8224  -55.9219 H         1 UNK         0.1355 
     79 H79        28.0663  -40.8443  -54.7882 H         1 UNK         0.0707 
     80 H80        28.8409  -41.4672  -56.2320 H         1 UNK         0.0707 
     81 H81        25.1022  -42.4648  -56.1617 H         1 UNK         0.1034 
     82 H82        26.2600  -41.2741  -56.6559 H         1 UNK         0.1034 
     83 H83        25.2992  -42.7148  -58.5132 H         1 UNK         0.0482 
     84 H84        26.5233  -40.8566  -59.3531 H         1 UNK         0.3460 
     85 H85        28.1520  -41.1099  -59.9215 H         1 UNK         0.3460 
     86 H86        26.3991  -44.8801  -56.9428 H         1 UNK         0.2989 
     87 H87        25.0034  -46.9754  -57.6274 H         1 UNK         0.0559 
     88 H88        24.3313  -47.5334  -59.9396 H         1 UNK         0.0848 
     89 H89        25.3410  -48.8105  -59.2802 H         1 UNK         0.0848 
     90 H90        26.0109  -47.6628  -60.4386 H         1 UNK         0.0848 
     91 H91        26.9923  -47.6200  -56.9117 H         1 UNK         0.3144 
     92 H92        30.0971  -48.2604  -58.3857 H         1 UNK         0.0727 
     93 H93        29.5259  -46.2281  -56.1588 H         1 UNK         0.0790 
     94 H94        30.5642  -45.9821  -57.5494 H         1 UNK         0.0790 
     95 H95        31.0120  -47.1595  -56.3222 H         1 UNK         0.0790 
     96 H96        29.1485  -48.7387  -55.7523 H         1 UNK         0.3215 
     97 H97        27.1261  -51.5761  -56.4279 H         1 UNK         0.0863 
     98 H98        28.6846  -52.6544  -54.7875 H         1 UNK         0.0808 
     99 H99        29.9321  -51.4775  -55.1955 H         1 UNK         0.0808 
    100 H100       29.3632  -52.6104  -56.4062 H         1 UNK         0.0808 
    101 H101       28.0795  -50.1524  -54.0709 H         1 UNK         0.3118 
    102 H102       25.2861  -47.9821  -53.8303 H         1 UNK         0.0546 
    103 H103       25.8408  -50.5238  -52.2036 H         1 UNK         0.0828 
    104 H104       24.3178  -50.1209  -52.9829 H         1 UNK         0.0828 
    105 H105       24.9078  -49.1278  -51.6619 H         1 UNK         0.0828 
    106 H106       27.4477  -48.6376  -52.0485 H         1 UNK         0.3005 
    107 H107       29.8375  -46.3901  -53.3957 H         1 UNK         0.1257 
    108 H108       28.1676  -46.1916  -50.8269 H         1 UNK         0.0775 
    109 H109       28.3762  -44.9167  -51.9947 H         1 UNK         0.0775 
    110 H110       29.4024  -43.0823  -50.4599 H         1 UNK         0.0840 
    111 H111       31.1259  -43.0410  -50.2022 H         1 UNK         0.0840 
    112 H112       29.9795  -48.0191  -51.1167 H         1 UNK         0.2987 
    113 H113       31.5678  -49.7976  -51.2738 H         1 UNK         0.0785 
    114 H114       29.2022  -50.5491  -50.7561 H         1 UNK         0.0798 
    115 H115       30.2745  -51.9300  -50.8797 H         1 UNK         0.0798 
    116 H116       29.1920  -51.5381  -52.2119 H         1 UNK         0.0798 
    117 H117       31.5888  -50.6860  -53.9586 H         1 UNK         0.3079 
    118 H118       34.5181  -52.5560  -53.5939 H         1 UNK         0.0794 
    119 H119       33.4960  -54.2578  -55.0970 H         1 UNK         0.0786 
    120 H120       31.8770  -53.7251  -54.6388 H         1 UNK         0.0786 
    121 H121       32.9292  -54.4818  -53.4512 H         1 UNK         0.0786 
    122 H122       32.9424  -51.8619  -55.8864 H         1 UNK         0.3032 
    123 H123       34.6633  -49.6839  -57.0735 H         1 UNK         0.1094 
    124 H124       31.6455  -49.7608  -56.4873 H         1 UNK         0.0794 
    125 H125       32.3489  -49.1604  -57.9845 H         1 UNK         0.0794 
    126 H126       32.5292  -50.8474  -57.5607 H         1 UNK         0.0794 
    127 H127       33.3858  -47.8864  -55.1038 H         1 UNK         0.3016 
@<TRIPOS>BOND
     1    1    2 1    
     2    1   67 1    
     3    1   68 1    
     4    1   69 1    
     5    2    3 2    
     6    2    4 am   BACKBONE|DICT|INTERRES
     7    4    5 1    
     8    4   70 1    
     9    5    6 1    
    10    5   65 1    
    11    5   71 1    
    12    6    7 1    
    13    6   72 1    
    14    6   73 1    
    15    7    8 1    
    16    8    9 1    
    17    8   74 1    
    18    8   75 1    
    19    9   10 ar   
    20    9   14 ar   
    21   10   11 ar   
    22   10   76 1    
    23   11   12 ar   
    24   11   48 1    
    25   12   13 ar   
    26   12   77 1    
    27   13   14 ar   
    28   13   15 1    
    29   14   78 1    
    30   15   16 1    
    31   15   79 1    
    32   15   80 1    
    33   16   17 1    
    34   17   18 1    
    35   17   81 1    
    36   17   82 1    
    37   18   19 1    
    38   18   22 1    
    39   18   83 1    
    40   19   20 am   BACKBONE|DICT|INTERRES
    41   19   21 2    
    42   20   84 1    
    43   20   85 1    
    44   22   23 am   BACKBONE|DICT|INTERRES
    45   22   86 1    
    46   23   24 2    
    47   23   25 1    
    48   25   26 1    
    49   25   27 1    
    50   25   87 1    
    51   26   88 1    
    52   26   89 1    
    53   26   90 1    
    54   27   28 am   BACKBONE|DICT|INTERRES
    55   27   91 1    
    56   28   29 2    
    57   28   30 1    
    58   30   31 1    
    59   30   32 1    
    60   30   92 1    
    61   31   93 1    
    62   31   94 1    
    63   31   95 1    
    64   32   33 am   BACKBONE|DICT|INTERRES
    65   32   96 1    
    66   33   34 2    
    67   33   35 1    
    68   35   36 1    
    69   35   37 1    
    70   35   97 1    
    71   36   98 1    
    72   36   99 1    
    73   36  100 1    
    74   37   38 am   BACKBONE|DICT|INTERRES
    75   37  101 1    
    76   38   39 2    
    77   38   40 1    
    78   40   41 1    
    79   40   42 1    
    80   40  102 1    
    81   41  103 1    
    82   41  104 1    
    83   41  105 1    
    84   42   43 am   BACKBONE|DICT|INTERRES
    85   42  106 1    
    86   43   44 2    
    87   43   45 1    
    88   45   46 1    
    89   45   49 1    
    90   45  107 1    
    91   46   47 1    
    92   46  108 1    
    93   46  109 1    
    94   47   48 1    
    95   48  110 1    
    96   48  111 1    
    97   49   50 am   BACKBONE|DICT|INTERRES
    98   49  112 1    
    99   50   51 2    
   100   50   52 1    
   101   52   53 1    
   102   52   54 1    
   103   52  113 1    
   104   53  114 1    
   105   53  115 1    
   106   53  116 1    
   107   54   55 am   BACKBONE|DICT|INTERRES
   108   54  117 1    
   109   55   56 2    
   110   55   57 1    
   111   57   58 1    
   112   57   59 1    
   113   57  118 1    
   114   58  119 1    
   115   58  120 1    
   116   58  121 1    
   117   59   60 am   BACKBONE|DICT|INTERRES
   118   59  122 1    
   119   60   61 2    
   120   60   62 1    
   121   62   63 1    
   122   62   64 1    
   123   62  123 1    
   124   63  124 1    
   125   63  125 1    
   126   63  126 1    
   127   64   65 am   BACKBONE|DICT|INTERRES
   128   64  127 1    
   129   65   66 2    
@<TRIPOS>SUBSTRUCTURE
     1 UNK         1 GROUP             0       ****    0 ROOT    
