@<TRIPOS>MOLECULE
3R134
127   129    1
SMALL
USER_CHARGES


@<TRIPOS>ATOM
      1 CA         35.7601  -45.5156  -49.2346 C.3       0 UNK        -0.1968 
      2 C          34.2971  -45.6789  -49.6205 C.2       0 UNK         0.4852 
      3 O          33.4733  -45.9767  -48.7547 O.2       0 UNK        -0.5359 
      4 N          33.9827  -45.4844  -50.9099 N.am      1 UNK        -0.4300 
      5 CA         32.6488  -45.5946  -51.5202 C.3       1 UNK         0.0863 
      6 C6         31.6440  -44.5059  -51.0526 C.3       11 UNK        -0.0953 
      7 S7         32.2755  -42.8091  -51.3001 S.3       11 UNK        -0.2369 
      8 C8         31.1507  -42.1292  -52.5727 C.3       11 UNK         0.0226 
      9 C9         31.4514  -42.5407  -54.0165 C.ar      11 UNK        -0.0699 
     10 C10        32.7464  -42.8530  -54.4505 C.ar      11 UNK        -0.0804 
     11 C11        32.9899  -43.2009  -55.7842 C.ar      11 UNK        -0.0871 
     12 C12        31.9369  -43.1894  -56.7010 C.ar      11 UNK        -0.1008 
     13 C13        30.6378  -42.8876  -56.2856 C.ar      11 UNK        -0.0735 
     14 C14        30.4038  -42.5631  -54.9448 C.ar      11 UNK        -0.0945 
     15 C15        29.4912  -42.9109  -57.2868 C.3       11 UNK         0.0169 
     16 S16        29.2776  -44.5583  -58.0336 S.3       11 UNK        -0.2669 
     17 C17        27.7214  -44.3172  -58.9580 C.3       11 UNK        -0.0850 
     18 CA         26.5212  -44.9952  -58.2411 C.3       10 UNK         0.0855 
     19 C          25.1320  -44.5914  -58.8144 C.2       10 UNK         0.5543 
     20 N          24.0487  -45.1239  -58.2636 N.am      10 UNK        -0.7343 
     21 O          25.0256  -43.7961  -59.7455 O.2       10 UNK        -0.5027 
     22 N          26.6935  -46.4499  -58.1099 N.am      10 UNK        -0.4495 
     23 C          26.6237  -47.3650  -59.0874 C.2       10 UNK         0.4903 
     24 O          26.4260  -47.1032  -60.2742 O.2       10 UNK        -0.4860 
     25 CA         26.7861  -48.8334  -58.6608 C.3       9 UNK         0.0227 
     26 CB         28.2732  -49.2182  -58.5774 C.3       9 UNK        -0.1964 
     27 N          26.1427  -49.0734  -57.3678 N.am      9 UNK        -0.4231 
     28 C          24.8483  -49.3859  -57.2098 C.2       9 UNK         0.5014 
     29 O          24.0842  -49.6350  -58.1433 O.2       9 UNK        -0.5270 
     30 CA         24.3014  -49.4247  -55.7691 C.3       8 UNK         0.0284 
     31 CB         24.3954  -50.8488  -55.1973 C.3       8 UNK        -0.1977 
     32 N          24.9762  -48.4940  -54.8603 N.am      8 UNK        -0.4342 
     33 C          24.9211  -47.1572  -54.9490 C.2       8 UNK         0.5039 
     34 O          24.2292  -46.5531  -55.7690 O.2       8 UNK        -0.5547 
     35 CA         25.8317  -46.3571  -53.9964 C.3       7 UNK         0.0281 
     36 CB         25.0653  -45.9665  -52.7230 C.3       7 UNK        -0.1963 
     37 N          27.0784  -47.0449  -53.6272 N.am      7 UNK        -0.4444 
     38 C          28.0008  -47.4705  -54.5008 C.2       7 UNK         0.5104 
     39 O          27.8712  -47.3771  -55.7216 O.2       7 UNK        -0.5100 
     40 CA         29.2208  -48.2039  -53.9246 C.3       6 UNK         0.0396 
     41 CB         28.8805  -49.6904  -53.7336 C.3       6 UNK        -0.1801 
     42 N          30.3868  -48.0730  -54.8064 N.am      6 UNK        -0.4747 
     43 C          31.0654  -46.9248  -54.9767 C.2       6 UNK         0.5012 
     44 O          30.8231  -45.9183  -54.3126 O.2       6 UNK        -0.5003 
     45 CA         32.1916  -46.8684  -56.0370 C.3       5 UNK         0.0782 
     46 C46        33.5083  -46.2505  -55.4870 C.3       11 UNK        -0.0868 
     47 S47        34.4317  -45.3747  -56.7958 S.3       11 UNK        -0.2515 
     48 C48        34.3829  -43.6368  -56.2238 C.3       11 UNK         0.0199 
     49 N          32.4595  -48.1933  -56.5932 N.am      5 UNK        -0.4607 
     50 C          32.0742  -48.6349  -57.7952 C.2       4 UNK         0.5031 
     51 O          31.4710  -47.9462  -58.6167 O.2       4 UNK        -0.5119 
     52 CA         32.4159  -50.0974  -58.1503 C.3       4 UNK         0.0263 
     53 CB         33.5512  -50.1472  -59.1861 C.3       4 UNK        -0.1967 
     54 N          32.7881  -50.9239  -56.9948 N.am      4 UNK        -0.4237 
     55 C          31.9608  -51.2548  -55.9941 C.2       3 UNK         0.4908 
     56 O          30.7727  -50.9344  -55.9692 O.2       3 UNK        -0.5102 
     57 CA         32.5503  -52.0228  -54.7944 C.3       3 UNK         0.0241 
     58 CB         34.0160  -52.4788  -54.9849 C.3       3 UNK        -0.1971 
     59 N          32.4036  -51.2571  -53.5481 N.am      3 UNK        -0.4139 
     60 C          32.8867  -50.0305  -53.2980 C.2       2 UNK         0.5016 
     61 O          33.5740  -49.3846  -54.0946 O.2       2 UNK        -0.5319 
     62 CA         32.5432  -49.4274  -51.9278 C.3       2 UNK         0.0286 
     63 CB         33.3411  -50.1127  -50.8046 C.3       2 UNK        -0.1963 
     64 N          32.8575  -47.9990  -51.9264 N.am      2 UNK        -0.4790 
     65 C          32.0966  -47.0332  -51.3942 C.2       1 UNK         0.5024 
     66 O          31.0334  -47.2484  -50.8082 O.2       1 UNK        -0.4888 
     67 H67        36.3818  -45.2471  -50.0884 H         1 UNK         0.0892 
     68 H68        35.8638  -44.7345  -48.4819 H         1 UNK         0.0892 
     69 H69        36.1433  -46.4457  -48.8157 H         1 UNK         0.0892 
     70 H70        34.7231  -45.2376  -51.5510 H         1 UNK         0.3107 
     71 H71        32.7996  -45.4280  -52.5831 H         1 UNK         0.0773 
     72 H72        30.6999  -44.6153  -51.5896 H         1 UNK         0.0680 
     73 H73        31.4080  -44.6283  -49.9943 H         1 UNK         0.0680 
     74 H74        31.2066  -41.0413  -52.5206 H         1 UNK         0.0650 
     75 H75        30.1254  -42.3932  -52.3090 H         1 UNK         0.0650 
     76 H76        33.5677  -42.8429  -53.7483 H         1 UNK         0.1397 
     77 H77        32.1210  -43.4571  -57.7327 H         1 UNK         0.1363 
     78 H78        29.4003  -42.3224  -54.6216 H         1 UNK         0.1355 
     79 H79        28.5572  -42.6160  -56.8058 H         1 UNK         0.0707 
     80 H80        29.6850  -42.1793  -58.0725 H         1 UNK         0.0707 
     81 H81        27.5436  -43.2477  -59.0844 H         1 UNK         0.1034 
     82 H82        27.8426  -44.7200  -59.9648 H         1 UNK         0.1034 
     83 H83        26.5122  -44.6125  -57.2195 H         1 UNK         0.0482 
     84 H84        24.1284  -45.7337  -57.4520 H         1 UNK         0.3460 
     85 H85        23.1393  -44.8772  -58.6190 H         1 UNK         0.3460 
     86 H86        26.9531  -46.7694  -57.1805 H         1 UNK         0.2989 
     87 H87        26.3193  -49.4627  -59.4216 H         1 UNK         0.0559 
     88 H88        28.8136  -48.6065  -57.8542 H         1 UNK         0.0848 
     89 H89        28.7649  -49.0821  -59.5414 H         1 UNK         0.0848 
     90 H90        28.4012  -50.2622  -58.2913 H         1 UNK         0.0848 
     91 H91        26.6853  -48.8169  -56.5515 H         1 UNK         0.3144 
     92 H92        23.2472  -49.1422  -55.8119 H         1 UNK         0.0727 
     93 H93        23.9349  -50.9128  -54.2112 H         1 UNK         0.0790 
     94 H94        23.8775  -51.5616  -55.8408 H         1 UNK         0.0790 
     95 H95        25.4302  -51.1826  -55.1090 H         1 UNK         0.0790 
     96 H96        25.5584  -48.8979  -54.1416 H         1 UNK         0.3215 
     97 H97        26.1124  -45.4405  -54.5200 H         1 UNK         0.0863 
     98 H98        24.1457  -45.4335  -52.9698 H         1 UNK         0.0808 
     99 H99        25.6577  -45.3069  -52.0885 H         1 UNK         0.0808 
    100 H100       24.7864  -46.8408  -52.1336 H         1 UNK         0.0808 
    101 H101       27.2507  -47.1721  -52.6398 H         1 UNK         0.3118 
    102 H102       29.4671  -47.7717  -52.9536 H         1 UNK         0.0546 
    103 H103       28.0685  -49.8194  -53.0171 H         1 UNK         0.0828 
    104 H104       29.7315  -50.2532  -53.3555 H         1 UNK         0.0828 
    105 H105       28.5648  -50.1551  -54.6689 H         1 UNK         0.0828 
    106 H106       30.5966  -48.8654  -55.4024 H         1 UNK         0.3005 
    107 H107       31.7956  -46.2103  -56.8146 H         1 UNK         0.1257 
    108 H108       34.1570  -47.0146  -55.0574 H         1 UNK         0.0775 
    109 H109       33.3260  -45.5520  -54.6765 H         1 UNK         0.0775 
    110 H110       35.0992  -43.5185  -55.4093 H         1 UNK         0.0840 
    111 H111       34.7266  -42.9869  -57.0297 H         1 UNK         0.0840 
    112 H112       32.9454  -48.8262  -55.9659 H         1 UNK         0.2987 
    113 H113       31.5215  -50.5345  -58.5998 H         1 UNK         0.0785 
    114 H114       33.2924  -49.5728  -60.0768 H         1 UNK         0.0798 
    115 H115       33.7508  -51.1690  -59.5095 H         1 UNK         0.0798 
    116 H116       34.4779  -49.7309  -58.7888 H         1 UNK         0.0798 
    117 H117       33.7561  -51.2041  -56.9282 H         1 UNK         0.3079 
    118 H118       31.9384  -52.9193  -54.6828 H         1 UNK         0.0794 
    119 H119       34.3517  -53.0680  -54.1314 H         1 UNK         0.0786 
    120 H120       34.7043  -51.6393  -55.0899 H         1 UNK         0.0786 
    121 H121       34.1225  -53.1127  -55.8663 H         1 UNK         0.0786 
    122 H122       31.8389  -51.7015  -52.8376 H         1 UNK         0.3032 
    123 H123       31.4746  -49.5735  -51.7561 H         1 UNK         0.1094 
    124 H124       34.4166  -50.0133  -50.9572 H         1 UNK         0.0794 
    125 H125       33.1017  -49.6819  -49.8320 H         1 UNK         0.0794 
    126 H126       33.1154  -51.1782  -50.7489 H         1 UNK         0.0794 
    127 H127       33.6884  -47.7527  -52.4480 H         1 UNK         0.3016 
@<TRIPOS>BOND
     1    1    2 1    
     2    1   67 1    
     3    1   68 1    
     4    1   69 1    
     5    2    3 2    
     6    2    4 am   BACKBONE|DICT|INTERRES
     7    4    5 1    
     8    4   70 1    
     9    5    6 1    
    10    5   65 1    
    11    5   71 1    
    12    6    7 1    
    13    6   72 1    
    14    6   73 1    
    15    7    8 1    
    16    8    9 1    
    17    8   74 1    
    18    8   75 1    
    19    9   10 ar   
    20    9   14 ar   
    21   10   11 ar   
    22   10   76 1    
    23   11   12 ar   
    24   11   48 1    
    25   12   13 ar   
    26   12   77 1    
    27   13   14 ar   
    28   13   15 1    
    29   14   78 1    
    30   15   16 1    
    31   15   79 1    
    32   15   80 1    
    33   16   17 1    
    34   17   18 1    
    35   17   81 1    
    36   17   82 1    
    37   18   19 1    
    38   18   22 1    
    39   18   83 1    
    40   19   20 am   BACKBONE|DICT|INTERRES
    41   19   21 2    
    42   20   84 1    
    43   20   85 1    
    44   22   23 am   BACKBONE|DICT|INTERRES
    45   22   86 1    
    46   23   24 2    
    47   23   25 1    
    48   25   26 1    
    49   25   27 1    
    50   25   87 1    
    51   26   88 1    
    52   26   89 1    
    53   26   90 1    
    54   27   28 am   BACKBONE|DICT|INTERRES
    55   27   91 1    
    56   28   29 2    
    57   28   30 1    
    58   30   31 1    
    59   30   32 1    
    60   30   92 1    
    61   31   93 1    
    62   31   94 1    
    63   31   95 1    
    64   32   33 am   BACKBONE|DICT|INTERRES
    65   32   96 1    
    66   33   34 2    
    67   33   35 1    
    68   35   36 1    
    69   35   37 1    
    70   35   97 1    
    71   36   98 1    
    72   36   99 1    
    73   36  100 1    
    74   37   38 am   BACKBONE|DICT|INTERRES
    75   37  101 1    
    76   38   39 2    
    77   38   40 1    
    78   40   41 1    
    79   40   42 1    
    80   40  102 1    
    81   41  103 1    
    82   41  104 1    
    83   41  105 1    
    84   42   43 am   BACKBONE|DICT|INTERRES
    85   42  106 1    
    86   43   44 2    
    87   43   45 1    
    88   45   46 1    
    89   45   49 1    
    90   45  107 1    
    91   46   47 1    
    92   46  108 1    
    93   46  109 1    
    94   47   48 1    
    95   48  110 1    
    96   48  111 1    
    97   49   50 am   BACKBONE|DICT|INTERRES
    98   49  112 1    
    99   50   51 2    
   100   50   52 1    
   101   52   53 1    
   102   52   54 1    
   103   52  113 1    
   104   53  114 1    
   105   53  115 1    
   106   53  116 1    
   107   54   55 am   BACKBONE|DICT|INTERRES
   108   54  117 1    
   109   55   56 2    
   110   55   57 1    
   111   57   58 1    
   112   57   59 1    
   113   57  118 1    
   114   58  119 1    
   115   58  120 1    
   116   58  121 1    
   117   59   60 am   BACKBONE|DICT|INTERRES
   118   59  122 1    
   119   60   61 2    
   120   60   62 1    
   121   62   63 1    
   122   62   64 1    
   123   62  123 1    
   124   63  124 1    
   125   63  125 1    
   126   63  126 1    
   127   64   65 am   BACKBONE|DICT|INTERRES
   128   64  127 1    
   129   65   66 2    
@<TRIPOS>SUBSTRUCTURE
     1 UNK         1 GROUP             0       ****    0 ROOT    
