@<TRIPOS>MOLECULE
3R134
127   129    1
SMALL
USER_CHARGES


@<TRIPOS>ATOM
      1 CA         31.1742  -49.3942  -50.6873 C.3       0 UNK        -0.1968 
      2 C          32.4029  -48.5163  -50.5084 C.2       0 UNK         0.4852 
      3 O          33.3327  -48.8969  -49.7953 O.2       0 UNK        -0.5359 
      4 N          32.4075  -47.3446  -51.1588 N.am      1 UNK        -0.4300 
      5 CA         33.4655  -46.3258  -51.1047 C.3       1 UNK         0.0863 
      6 C6         33.0891  -45.0702  -51.9233 C.3       11 UNK        -0.0953 
      7 S7         31.5951  -44.2323  -51.3045 S.3       11 UNK        -0.2369 
      8 C8         31.5713  -42.7550  -52.3693 C.3       11 UNK         0.0226 
      9 C9         31.1740  -43.0955  -53.7986 C.ar      11 UNK        -0.0699 
     10 C10        32.1481  -43.4303  -54.7437 C.ar      11 UNK        -0.0804 
     11 C11        31.7872  -43.7707  -56.0506 C.ar      11 UNK        -0.0871 
     12 C12        30.4376  -43.7398  -56.4180 C.ar      11 UNK        -0.1008 
     13 C13        29.4551  -43.3963  -55.4845 C.ar      11 UNK        -0.0735 
     14 C14        29.8292  -43.0770  -54.1762 C.ar      11 UNK        -0.0945 
     15 C15        27.9850  -43.4090  -55.8702 C.3       11 UNK         0.0169 
     16 S16        27.4959  -41.8843  -56.7348 S.3       11 UNK        -0.2669 
     17 C17        27.4960  -42.4297  -58.4788 C.3       11 UNK        -0.0850 
     18 CA         26.0798  -42.8501  -58.9583 C.3       10 UNK         0.0855 
     19 C          26.0414  -43.0975  -60.4957 C.2       10 UNK         0.5543 
     20 N          25.5766  -44.2415  -60.9859 N.am      10 UNK        -0.7343 
     21 O          26.4338  -42.2237  -61.2650 O.2       10 UNK        -0.5027 
     22 N          25.5619  -43.9731  -58.1632 N.am      10 UNK        -0.4495 
     23 C          24.2761  -44.1958  -57.8710 C.2       10 UNK         0.4903 
     24 O          23.3579  -43.4372  -58.1866 O.2       10 UNK        -0.4860 
     25 CA         23.9781  -45.4978  -57.0972 C.3       9 UNK         0.0227 
     26 CB         22.5108  -45.9539  -57.2410 C.3       9 UNK        -0.1964 
     27 N          24.8970  -46.5987  -57.4268 N.am      9 UNK        -0.4231 
     28 C          25.1080  -47.1374  -58.6413 C.2       9 UNK         0.5014 
     29 O          24.5489  -46.7428  -59.6657 O.2       9 UNK        -0.5270 
     30 CA         26.1437  -48.2714  -58.7634 C.3       8 UNK         0.0284 
     31 CB         27.3327  -47.8199  -59.6296 C.3       8 UNK        -0.1977 
     32 N          26.6393  -48.7451  -57.4683 N.am      8 UNK        -0.4342 
     33 C          25.9737  -49.5963  -56.6719 C.2       8 UNK         0.5039 
     34 O          24.9013  -50.1157  -56.9824 O.2       8 UNK        -0.5547 
     35 CA         26.5817  -49.9216  -55.2929 C.3       7 UNK         0.0281 
     36 CB         27.2406  -51.3112  -55.3130 C.3       7 UNK        -0.1963 
     37 N          27.5607  -48.9439  -54.8122 N.am      7 UNK        -0.4444 
     38 C          27.3246  -47.6507  -54.5497 C.2       7 UNK         0.5104 
     39 O          26.2252  -47.1109  -54.6765 O.2       7 UNK        -0.5100 
     40 CA         28.5524  -46.8095  -54.1556 C.3       6 UNK         0.0396 
     41 CB         28.7649  -46.8388  -52.6355 C.3       6 UNK        -0.1801 
     42 N          29.7843  -47.2315  -54.8357 N.am      6 UNK        -0.4747 
     43 C          29.9590  -47.2630  -56.1653 C.2       6 UNK         0.5012 
     44 O          29.0937  -46.9149  -56.9692 O.2       6 UNK        -0.5003 
     45 CA         31.2671  -47.8880  -56.6873 C.3       5 UNK         0.0782 
     46 C46        32.4932  -46.9430  -56.5579 C.3       11 UNK        -0.0868 
     47 S47        32.5415  -45.7275  -57.9199 S.3       11 UNK        -0.2515 
     48 C48        32.8667  -44.1529  -57.0575 C.3       11 UNK         0.0199 
     49 N          31.4779  -49.2371  -56.1430 N.am      5 UNK        -0.4607 
     50 C          31.8663  -49.5769  -54.9079 C.2       4 UNK         0.5031 
     51 O          32.1681  -48.7526  -54.0394 O.2       4 UNK        -0.5119 
     52 CA         31.8843  -51.0785  -54.5671 C.3       4 UNK         0.0263 
     53 CB         31.8173  -52.0133  -55.7922 C.3       4 UNK        -0.1967 
     54 N          33.1046  -51.3472  -53.8217 N.am      4 UNK        -0.4237 
     55 C          33.1986  -51.8935  -52.6070 C.2       3 UNK         0.4908 
     56 O          32.2609  -52.4340  -52.0203 O.2       3 UNK        -0.5102 
     57 CA         34.5619  -51.7662  -51.8991 C.3       3 UNK         0.0241 
     58 CB         35.5091  -52.9208  -52.2805 C.3       3 UNK        -0.1971 
     59 N          35.1886  -50.4446  -52.0810 N.am      3 UNK        -0.4139 
     60 C          35.6870  -49.8967  -53.2017 C.2       2 UNK         0.5016 
     61 O          35.7839  -50.4956  -54.2742 O.2       2 UNK        -0.5319 
     62 CA         36.0012  -48.3977  -53.1330 C.3       2 UNK         0.0286 
     63 CB         36.3579  -47.7889  -54.5027 C.3       2 UNK        -0.1963 
     64 N          34.8240  -47.7156  -52.5990 N.am      2 UNK        -0.4790 
     65 C          34.8355  -46.8486  -51.5804 C.2       1 UNK         0.5024 
     66 O          35.8610  -46.4665  -51.0151 O.2       1 UNK        -0.4888 
     67 H67        30.9259  -49.5080  -51.7417 H         1 UNK         0.0892 
     68 H68        30.3183  -48.9602  -50.1712 H         1 UNK         0.0892 
     69 H69        31.3490  -50.3885  -50.2768 H         1 UNK         0.0892 
     70 H70        31.6163  -47.1024  -51.7353 H         1 UNK         0.3107 
     71 H71        33.5803  -46.0352  -50.0583 H         1 UNK         0.0773 
     72 H72        32.9279  -45.3470  -52.9662 H         1 UNK         0.0680 
     73 H73        33.9051  -44.3444  -51.9130 H         1 UNK         0.0680 
     74 H74        30.8667  -42.0343  -51.9516 H         1 UNK         0.0650 
     75 H75        32.5485  -42.2701  -52.3490 H         1 UNK         0.0650 
     76 H76        33.1899  -43.4377  -54.4541 H         1 UNK         0.1397 
     77 H77        30.1515  -44.0033  -57.4265 H         1 UNK         0.1363 
     78 H78        29.0726  -42.8222  -53.4468 H         1 UNK         0.1355 
     79 H79        27.7748  -44.2887  -56.4793 H         1 UNK         0.0707 
     80 H80        27.3638  -43.5107  -54.9789 H         1 UNK         0.0707 
     81 H81        28.2130  -43.2390  -58.6240 H         1 UNK         0.1034 
     82 H82        27.8665  -41.5937  -59.0753 H         1 UNK         0.1034 
     83 H83        25.4224  -41.9941  -58.7938 H         1 UNK         0.0482 
     84 H84        25.2189  -44.9718  -60.3804 H         1 UNK         0.3460 
     85 H85        25.5582  -44.3718  -61.9847 H         1 UNK         0.3460 
     86 H86        26.2374  -44.6682  -57.8866 H         1 UNK         0.2989 
     87 H87        24.1501  -45.2682  -56.0446 H         1 UNK         0.0559 
     88 H88        22.3207  -46.8640  -56.6721 H         1 UNK         0.0848 
     89 H89        22.2476  -46.1475  -58.2814 H         1 UNK         0.0848 
     90 H90        21.8245  -45.1922  -56.8688 H         1 UNK         0.0848 
     91 H91        25.4159  -46.9736  -56.6393 H         1 UNK         0.3144 
     92 H92        25.6542  -49.1030  -59.2749 H         1 UNK         0.0727 
     93 H93        28.0923  -48.5981  -59.7043 H         1 UNK         0.0790 
     94 H94        27.8071  -46.9217  -59.2337 H         1 UNK         0.0790 
     95 H95        27.0074  -47.5883  -60.6448 H         1 UNK         0.0790 
     96 H96        27.5050  -48.3306  -57.1409 H         1 UNK         0.3215 
     97 H97        25.7578  -49.9406  -54.5761 H         1 UNK         0.0863 
     98 H98        27.5953  -51.5991  -54.3231 H         1 UNK         0.0808 
     99 H99        28.0876  -51.3477  -55.9993 H         1 UNK         0.0808 
    100 H100       26.5303  -52.0751  -55.6332 H         1 UNK         0.0808 
    101 H101       28.5046  -49.2764  -54.6871 H         1 UNK         0.3118 
    102 H102       28.3483  -45.7805  -54.4472 H         1 UNK         0.0546 
    103 H103       27.8658  -46.5126  -52.1108 H         1 UNK         0.0828 
    104 H104       29.5685  -46.1666  -52.3385 H         1 UNK         0.0828 
    105 H105       29.0056  -47.8399  -52.2777 H         1 UNK         0.0828 
    106 H106       30.5507  -47.5684  -54.2629 H         1 UNK         0.3005 
    107 H107       31.1035  -48.0625  -57.7527 H         1 UNK         0.1257 
    108 H108       33.4166  -47.5204  -56.6192 H         1 UNK         0.0775 
    109 H109       32.5186  -46.4460  -55.5864 H         1 UNK         0.0775 
    110 H110       33.8432  -44.2201  -56.5751 H         1 UNK         0.0840 
    111 H111       32.9468  -43.3580  -57.8001 H         1 UNK         0.0840 
    112 H112       31.2541  -49.9888  -56.7799 H         1 UNK         0.2987 
    113 H113       31.0119  -51.2664  -53.9379 H         1 UNK         0.0785 
    114 H114       32.6315  -51.8254  -56.4938 H         1 UNK         0.0798 
    115 H115       30.8740  -51.9062  -56.3290 H         1 UNK         0.0798 
    116 H116       31.8855  -53.0576  -55.4861 H         1 UNK         0.0798 
    117 H117       33.9560  -50.9387  -54.2010 H         1 UNK         0.3079 
    118 H118       34.3630  -51.8468  -50.8290 H         1 UNK         0.0794 
    119 H119       35.7191  -52.9463  -53.3500 H         1 UNK         0.0786 
    120 H120       35.0691  -53.8835  -52.0172 H         1 UNK         0.0786 
    121 H121       36.4600  -52.8438  -51.7533 H         1 UNK         0.0786 
    122 H122       35.0922  -49.8293  -51.2822 H         1 UNK         0.3032 
    123 H123       36.8593  -48.2842  -52.4663 H         1 UNK         0.1094 
    124 H124       35.5413  -47.8985  -55.2174 H         1 UNK         0.0794 
    125 H125       36.5849  -46.7263  -54.4154 H         1 UNK         0.0794 
    126 H126       37.2364  -48.2740  -54.9302 H         1 UNK         0.0794 
    127 H127       33.9286  -47.9945  -52.9898 H         1 UNK         0.3016 
@<TRIPOS>BOND
     1    1    2 1    
     2    1   67 1    
     3    1   68 1    
     4    1   69 1    
     5    2    3 2    
     6    2    4 am   BACKBONE|DICT|INTERRES
     7    4    5 1    
     8    4   70 1    
     9    5    6 1    
    10    5   65 1    
    11    5   71 1    
    12    6    7 1    
    13    6   72 1    
    14    6   73 1    
    15    7    8 1    
    16    8    9 1    
    17    8   74 1    
    18    8   75 1    
    19    9   10 ar   
    20    9   14 ar   
    21   10   11 ar   
    22   10   76 1    
    23   11   12 ar   
    24   11   48 1    
    25   12   13 ar   
    26   12   77 1    
    27   13   14 ar   
    28   13   15 1    
    29   14   78 1    
    30   15   16 1    
    31   15   79 1    
    32   15   80 1    
    33   16   17 1    
    34   17   18 1    
    35   17   81 1    
    36   17   82 1    
    37   18   19 1    
    38   18   22 1    
    39   18   83 1    
    40   19   20 am   BACKBONE|DICT|INTERRES
    41   19   21 2    
    42   20   84 1    
    43   20   85 1    
    44   22   23 am   BACKBONE|DICT|INTERRES
    45   22   86 1    
    46   23   24 2    
    47   23   25 1    
    48   25   26 1    
    49   25   27 1    
    50   25   87 1    
    51   26   88 1    
    52   26   89 1    
    53   26   90 1    
    54   27   28 am   BACKBONE|DICT|INTERRES
    55   27   91 1    
    56   28   29 2    
    57   28   30 1    
    58   30   31 1    
    59   30   32 1    
    60   30   92 1    
    61   31   93 1    
    62   31   94 1    
    63   31   95 1    
    64   32   33 am   BACKBONE|DICT|INTERRES
    65   32   96 1    
    66   33   34 2    
    67   33   35 1    
    68   35   36 1    
    69   35   37 1    
    70   35   97 1    
    71   36   98 1    
    72   36   99 1    
    73   36  100 1    
    74   37   38 am   BACKBONE|DICT|INTERRES
    75   37  101 1    
    76   38   39 2    
    77   38   40 1    
    78   40   41 1    
    79   40   42 1    
    80   40  102 1    
    81   41  103 1    
    82   41  104 1    
    83   41  105 1    
    84   42   43 am   BACKBONE|DICT|INTERRES
    85   42  106 1    
    86   43   44 2    
    87   43   45 1    
    88   45   46 1    
    89   45   49 1    
    90   45  107 1    
    91   46   47 1    
    92   46  108 1    
    93   46  109 1    
    94   47   48 1    
    95   48  110 1    
    96   48  111 1    
    97   49   50 am   BACKBONE|DICT|INTERRES
    98   49  112 1    
    99   50   51 2    
   100   50   52 1    
   101   52   53 1    
   102   52   54 1    
   103   52  113 1    
   104   53  114 1    
   105   53  115 1    
   106   53  116 1    
   107   54   55 am   BACKBONE|DICT|INTERRES
   108   54  117 1    
   109   55   56 2    
   110   55   57 1    
   111   57   58 1    
   112   57   59 1    
   113   57  118 1    
   114   58  119 1    
   115   58  120 1    
   116   58  121 1    
   117   59   60 am   BACKBONE|DICT|INTERRES
   118   59  122 1    
   119   60   61 2    
   120   60   62 1    
   121   62   63 1    
   122   62   64 1    
   123   62  123 1    
   124   63  124 1    
   125   63  125 1    
   126   63  126 1    
   127   64   65 am   BACKBONE|DICT|INTERRES
   128   64  127 1    
   129   65   66 2    
@<TRIPOS>SUBSTRUCTURE
     1 UNK         1 GROUP             0       ****    0 ROOT    
