@<TRIPOS>MOLECULE
3R134
127   129    1
SMALL
USER_CHARGES


@<TRIPOS>ATOM
      1 CA         36.3641  -43.4772  -56.1094 C.3       0 UNK        -0.1968 
      2 C          35.4474  -44.2067  -55.1400 C.2       0 UNK         0.4852 
      3 O          34.8160  -45.1936  -55.5190 O.2       0 UNK        -0.5359 
      4 N          35.3848  -43.7478  -53.8818 N.am      1 UNK        -0.4300 
      5 CA         34.4700  -44.2494  -52.8439 C.3       1 UNK         0.0863 
      6 C6         34.2748  -43.2444  -51.6766 C.3       11 UNK        -0.0953 
      7 S7         33.8265  -41.5602  -52.2275 S.3       11 UNK        -0.2369 
      8 C8         32.0050  -41.6413  -52.2979 C.3       11 UNK         0.0226 
      9 C9         31.5267  -42.6062  -53.3732 C.ar      11 UNK        -0.0699 
     10 C10        30.9085  -43.8098  -53.0202 C.ar      11 UNK        -0.0804 
     11 C11        30.5470  -44.7347  -54.0042 C.ar      11 UNK        -0.0871 
     12 C12        30.7871  -44.4427  -55.3497 C.ar      11 UNK        -0.1008 
     13 C13        31.3864  -43.2335  -55.7145 C.ar      11 UNK        -0.0735 
     14 C14        31.7489  -42.3177  -54.7230 C.ar      11 UNK        -0.0945 
     15 C15        31.6675  -42.9202  -57.1756 C.3       11 UNK         0.0169 
     16 S16        30.3731  -41.8613  -57.8951 S.3       11 UNK        -0.2669 
     17 C17        28.9862  -43.0377  -58.0566 C.3       11 UNK        -0.0850 
     18 CA         27.9548  -42.9464  -56.8890 C.3       10 UNK         0.0855 
     19 C          26.8905  -41.8186  -57.0574 C.2       10 UNK         0.5543 
     20 N          27.2702  -40.6689  -57.5974 N.am      10 UNK        -0.7343 
     21 O          25.7332  -41.9543  -56.6631 O.2       10 UNK        -0.5027 
     22 N          27.3693  -44.2594  -56.5780 N.am      10 UNK        -0.4495 
     23 C          26.6488  -45.0095  -57.4202 C.2       10 UNK         0.4903 
     24 O          26.3964  -44.7027  -58.5876 O.2       10 UNK        -0.4860 
     25 CA         26.1339  -46.3484  -56.8701 C.3       9 UNK         0.0227 
     26 CB         24.5977  -46.4034  -56.9029 C.3       9 UNK        -0.1964 
     27 N          26.6773  -47.4781  -57.6247 N.am      9 UNK        -0.4231 
     28 C          27.9726  -47.8122  -57.6937 C.2       9 UNK         0.5014 
     29 O          28.8680  -47.2245  -57.0841 O.2       9 UNK        -0.5270 
     30 CA         28.3028  -49.0452  -58.5495 C.3       8 UNK         0.0284 
     31 CB         29.8154  -49.3259  -58.6253 C.3       8 UNK        -0.1977 
     32 N          27.6390  -50.2241  -57.9973 N.am      8 UNK        -0.4342 
     33 C          26.4179  -50.6603  -58.3262 C.2       8 UNK         0.5039 
     34 O          25.6911  -50.0924  -59.1422 O.2       8 UNK        -0.5547 
     35 CA         25.9145  -51.9166  -57.6040 C.3       7 UNK         0.0281 
     36 CB         26.7277  -53.1567  -58.0146 C.3       7 UNK        -0.1963 
     37 N          25.9885  -51.7395  -56.1533 N.am      7 UNK        -0.4444 
     38 C          24.9578  -51.8742  -55.3069 C.2       7 UNK         0.5104 
     39 O          23.8259  -52.2159  -55.6517 O.2       7 UNK        -0.5100 
     40 CA         25.2232  -51.5823  -53.8147 C.3       6 UNK         0.0396 
     41 CB         25.4549  -52.8938  -53.0476 C.3       6 UNK        -0.1801 
     42 N          26.3605  -50.6871  -53.5853 N.am      6 UNK        -0.4747 
     43 C          26.4130  -49.4024  -53.9661 C.2       6 UNK         0.5012 
     44 O          25.4470  -48.7981  -54.4304 O.2       6 UNK        -0.5003 
     45 CA         27.7694  -48.6714  -53.8472 C.3       5 UNK         0.0782 
     46 C46        27.7324  -47.5610  -52.7583 C.3       11 UNK        -0.0868 
     47 S47        28.1248  -45.9171  -53.4373 S.3       11 UNK        -0.2515 
     48 C48        29.9268  -46.0624  -53.6080 C.3       11 UNK         0.0199 
     49 N          28.9409  -49.5486  -53.6829 N.am      5 UNK        -0.4607 
     50 C          29.3421  -50.5047  -54.5305 C.2       4 UNK         0.5031 
     51 O          28.7137  -50.8386  -55.5365 O.2       4 UNK        -0.5119 
     52 CA         30.6685  -51.2044  -54.1997 C.3       4 UNK         0.0263 
     53 CB         30.6664  -52.6729  -54.6626 C.3       4 UNK        -0.1967 
     54 N          31.7854  -50.5044  -54.8330 N.am      4 UNK        -0.4237 
     55 C          32.3146  -49.3550  -54.3951 C.2       3 UNK         0.4908 
     56 O          31.9231  -48.7586  -53.3890 O.2       3 UNK        -0.5102 
     57 CA         33.4515  -48.7642  -55.2492 C.3       3 UNK         0.0241 
     58 CB         32.8777  -47.7796  -56.2813 C.3       3 UNK        -0.1971 
     59 N          34.4637  -48.0717  -54.4472 N.am      3 UNK        -0.4139 
     60 C          35.2223  -48.6355  -53.4922 C.2       2 UNK         0.5016 
     61 O          35.2167  -49.8421  -53.2418 O.2       2 UNK        -0.5319 
     62 CA         36.1637  -47.7165  -52.6838 C.3       2 UNK         0.0286 
     63 CB         37.6295  -47.9590  -53.0810 C.3       2 UNK        -0.1963 
     64 N          35.8604  -46.2930  -52.8462 N.am      2 UNK        -0.4790 
     65 C          34.7935  -45.6699  -52.3263 C.2       1 UNK         0.5024 
     66 O          34.0521  -46.1916  -51.4931 O.2       1 UNK        -0.4888 
     67 H67        36.8728  -42.6373  -55.6366 H         1 UNK         0.0892 
     68 H68        37.1203  -44.1593  -56.4967 H         1 UNK         0.0892 
     69 H69        35.7869  -43.0943  -56.9506 H         1 UNK         0.0892 
     70 H70        35.9309  -42.9393  -53.6193 H         1 UNK         0.3107 
     71 H71        33.5081  -44.3716  -53.3378 H         1 UNK         0.0773 
     72 H72        33.5048  -43.5967  -50.9876 H         1 UNK         0.0680 
     73 H73        35.1925  -43.1684  -51.0907 H         1 UNK         0.0680 
     74 H74        31.6149  -40.6454  -52.5120 H         1 UNK         0.0650 
     75 H75        31.6170  -41.9205  -51.3171 H         1 UNK         0.0650 
     76 H76        30.7375  -44.0433  -51.9781 H         1 UNK         0.1397 
     77 H77        30.5084  -45.1591  -56.1114 H         1 UNK         0.1363 
     78 H78        32.2297  -41.3894  -54.9998 H         1 UNK         0.1355 
     79 H79        32.6271  -42.4074  -57.2580 H         1 UNK         0.0707 
     80 H80        31.7668  -43.8383  -57.7569 H         1 UNK         0.0707 
     81 H81        28.4967  -42.8828  -59.0200 H         1 UNK         0.1034 
     82 H82        29.4042  -44.0441  -58.1137 H         1 UNK         0.1034 
     83 H83        28.4939  -42.6836  -55.9784 H         1 UNK         0.0482 
     84 H84        28.2263  -40.5422  -57.8962 H         1 UNK         0.3460 
     85 H85        26.6019  -39.9213  -57.6989 H         1 UNK         0.3460 
     86 H86        27.5250  -44.5950  -55.6372 H         1 UNK         0.2989 
     87 H87        26.4507  -46.4556  -55.8321 H         1 UNK         0.0559 
     88 H88        24.1678  -45.5784  -56.3333 H         1 UNK         0.0848 
     89 H89        24.2241  -47.3285  -56.4632 H         1 UNK         0.0848 
     90 H90        24.2108  -46.3340  -57.9203 H         1 UNK         0.0848 
     91 H91        26.0209  -48.0302  -58.1625 H         1 UNK         0.3144 
     92 H92        27.9441  -48.8530  -59.5630 H         1 UNK         0.0727 
     93 H93        30.2298  -49.5557  -57.6431 H         1 UNK         0.0790 
     94 H94        30.3557  -48.4633  -59.0175 H         1 UNK         0.0790 
     95 H95        30.0284  -50.1688  -59.2828 H         1 UNK         0.0790 
     96 H96        28.1283  -50.6710  -57.2236 H         1 UNK         0.3215 
     97 H97        24.8799  -52.0722  -57.9179 H         1 UNK         0.0863 
     98 H98        26.3106  -54.0625  -57.5743 H         1 UNK         0.0808 
     99 H99        27.7700  -53.0844  -57.7009 H         1 UNK         0.0808 
    100 H100       26.7189  -53.2892  -59.0973 H         1 UNK         0.0808 
    101 H101       26.8819  -51.4344  -55.7780 H         1 UNK         0.3118 
    102 H102       24.3300  -51.1019  -53.4098 H         1 UNK         0.0546 
    103 H103       26.3462  -53.4157  -53.3986 H         1 UNK         0.0828 
    104 H104       24.6103  -53.5730  -53.1727 H         1 UNK         0.0828 
    105 H105       25.5675  -52.7151  -51.9782 H         1 UNK         0.0828 
    106 H106       27.1977  -51.1016  -53.2022 H         1 UNK         0.3005 
    107 H107       27.8996  -48.2030  -54.8229 H         1 UNK         0.1257 
    108 H108       28.4146  -47.7787  -51.9348 H         1 UNK         0.0775 
    109 H109       26.7501  -47.4748  -52.2884 H         1 UNK         0.0775 
    110 H110       30.3640  -46.4106  -52.6706 H         1 UNK         0.0840 
    111 H111       30.1569  -46.8230  -54.3562 H         1 UNK         0.0840 
    112 H112       29.5548  -49.3240  -52.9117 H         1 UNK         0.2987 
    113 H113       30.8081  -51.1947  -53.1164 H         1 UNK         0.0785 
    114 H114       29.8329  -53.2200  -54.2200 H         1 UNK         0.0798 
    115 H115       31.5823  -53.1832  -54.3639 H         1 UNK         0.0798 
    116 H116       30.5731  -52.7602  -55.7461 H         1 UNK         0.0798 
    117 H117       32.1410  -50.9108  -55.6863 H         1 UNK         0.3079 
    118 H118       33.9519  -49.5776  -55.7784 H         1 UNK         0.0794 
    119 H119       32.1199  -48.2531  -56.9054 H         1 UNK         0.0786 
    120 H120       33.6553  -47.4025  -56.9459 H         1 UNK         0.0786 
    121 H121       32.4105  -46.9210  -55.7972 H         1 UNK         0.0786 
    122 H122       34.5516  -47.0737  -54.6076 H         1 UNK         0.3032 
    123 H123       36.0430  -47.9787  -51.6301 H         1 UNK         0.1094 
    124 H124       38.3099  -47.3627  -52.4729 H         1 UNK         0.0794 
    125 H125       37.9045  -49.0052  -52.9393 H         1 UNK         0.0794 
    126 H126       37.8101  -47.7140  -54.1285 H         1 UNK         0.0794 
    127 H127       36.4088  -45.7873  -53.5272 H         1 UNK         0.3016 
@<TRIPOS>BOND
     1    1    2 1    
     2    1   67 1    
     3    1   68 1    
     4    1   69 1    
     5    2    3 2    
     6    2    4 am   BACKBONE|DICT|INTERRES
     7    4    5 1    
     8    4   70 1    
     9    5    6 1    
    10    5   65 1    
    11    5   71 1    
    12    6    7 1    
    13    6   72 1    
    14    6   73 1    
    15    7    8 1    
    16    8    9 1    
    17    8   74 1    
    18    8   75 1    
    19    9   10 ar   
    20    9   14 ar   
    21   10   11 ar   
    22   10   76 1    
    23   11   12 ar   
    24   11   48 1    
    25   12   13 ar   
    26   12   77 1    
    27   13   14 ar   
    28   13   15 1    
    29   14   78 1    
    30   15   16 1    
    31   15   79 1    
    32   15   80 1    
    33   16   17 1    
    34   17   18 1    
    35   17   81 1    
    36   17   82 1    
    37   18   19 1    
    38   18   22 1    
    39   18   83 1    
    40   19   20 am   BACKBONE|DICT|INTERRES
    41   19   21 2    
    42   20   84 1    
    43   20   85 1    
    44   22   23 am   BACKBONE|DICT|INTERRES
    45   22   86 1    
    46   23   24 2    
    47   23   25 1    
    48   25   26 1    
    49   25   27 1    
    50   25   87 1    
    51   26   88 1    
    52   26   89 1    
    53   26   90 1    
    54   27   28 am   BACKBONE|DICT|INTERRES
    55   27   91 1    
    56   28   29 2    
    57   28   30 1    
    58   30   31 1    
    59   30   32 1    
    60   30   92 1    
    61   31   93 1    
    62   31   94 1    
    63   31   95 1    
    64   32   33 am   BACKBONE|DICT|INTERRES
    65   32   96 1    
    66   33   34 2    
    67   33   35 1    
    68   35   36 1    
    69   35   37 1    
    70   35   97 1    
    71   36   98 1    
    72   36   99 1    
    73   36  100 1    
    74   37   38 am   BACKBONE|DICT|INTERRES
    75   37  101 1    
    76   38   39 2    
    77   38   40 1    
    78   40   41 1    
    79   40   42 1    
    80   40  102 1    
    81   41  103 1    
    82   41  104 1    
    83   41  105 1    
    84   42   43 am   BACKBONE|DICT|INTERRES
    85   42  106 1    
    86   43   44 2    
    87   43   45 1    
    88   45   46 1    
    89   45   49 1    
    90   45  107 1    
    91   46   47 1    
    92   46  108 1    
    93   46  109 1    
    94   47   48 1    
    95   48  110 1    
    96   48  111 1    
    97   49   50 am   BACKBONE|DICT|INTERRES
    98   49  112 1    
    99   50   51 2    
   100   50   52 1    
   101   52   53 1    
   102   52   54 1    
   103   52  113 1    
   104   53  114 1    
   105   53  115 1    
   106   53  116 1    
   107   54   55 am   BACKBONE|DICT|INTERRES
   108   54  117 1    
   109   55   56 2    
   110   55   57 1    
   111   57   58 1    
   112   57   59 1    
   113   57  118 1    
   114   58  119 1    
   115   58  120 1    
   116   58  121 1    
   117   59   60 am   BACKBONE|DICT|INTERRES
   118   59  122 1    
   119   60   61 2    
   120   60   62 1    
   121   62   63 1    
   122   62   64 1    
   123   62  123 1    
   124   63  124 1    
   125   63  125 1    
   126   63  126 1    
   127   64   65 am   BACKBONE|DICT|INTERRES
   128   64  127 1    
   129   65   66 2    
@<TRIPOS>SUBSTRUCTURE
     1 UNK         1 GROUP             0       ****    0 ROOT    
