@<TRIPOS>MOLECULE
3R134
127   129    1
SMALL
USER_CHARGES


@<TRIPOS>ATOM
      1 CA         37.0149  -47.7265  -55.6928 C.3       0 UNK        -0.1968 
      2 C          35.6767  -47.3588  -55.0718 C.2       0 UNK         0.4852 
      3 O          34.7046  -48.0947  -55.2451 O.2       0 UNK        -0.5359 
      4 N          35.6239  -46.2369  -54.3389 N.am      1 UNK        -0.4300 
      5 CA         34.4316  -45.6699  -53.6896 C.3       1 UNK         0.0863 
      6 C6         34.7730  -44.3835  -52.9008 C.3       11 UNK        -0.0953 
      7 S7         35.2262  -43.0244  -54.0286 S.3       11 UNK        -0.2369 
      8 C8         33.9065  -41.8069  -53.7125 C.3       11 UNK         0.0226 
      9 C9         32.5081  -42.3648  -53.9513 C.ar      11 UNK        -0.0699 
     10 C10        31.6231  -42.5254  -52.8800 C.ar      11 UNK        -0.0804 
     11 C11        30.3265  -43.0092  -53.0842 C.ar      11 UNK        -0.0871 
     12 C12        29.9189  -43.3267  -54.3854 C.ar      11 UNK        -0.1008 
     13 C13        30.7979  -43.1830  -55.4630 C.ar      11 UNK        -0.0735 
     14 C14        32.0899  -42.6984  -55.2421 C.ar      11 UNK        -0.0945 
     15 C15        30.3469  -43.5527  -56.8645 C.3       11 UNK         0.0169 
     16 S16        29.5368  -42.1474  -57.6843 S.3       11 UNK        -0.2669 
     17 C17        28.8284  -43.0023  -59.1274 C.3       11 UNK        -0.0850 
     18 CA         27.3968  -43.5523  -58.8212 C.3       10 UNK         0.0855 
     19 C          26.2676  -42.8859  -59.6648 C.2       10 UNK         0.5543 
     20 N          26.2707  -41.5637  -59.7716 N.am      10 UNK        -0.7343 
     21 O          25.3640  -43.5380  -60.1845 O.2       10 UNK        -0.5027 
     22 N          27.3631  -45.0227  -58.8054 N.am      10 UNK        -0.4495 
     23 C          27.5748  -45.8419  -59.8447 C.2       10 UNK         0.4903 
     24 O          27.8625  -45.4550  -60.9780 O.2       10 UNK        -0.4860 
     25 CA         27.4903  -47.3557  -59.5745 C.3       9 UNK         0.0227 
     26 CB         28.8831  -47.9990  -59.6838 C.3       9 UNK        -0.1964 
     27 N          26.9289  -47.6797  -58.2606 N.am      9 UNK        -0.4231 
     28 C          25.6224  -47.7276  -57.9671 C.2       9 UNK         0.5014 
     29 O          24.7275  -47.4827  -58.7783 O.2       9 UNK        -0.5270 
     30 CA         25.2766  -48.1244  -56.5181 C.3       8 UNK         0.0284 
     31 CB         23.7725  -48.3906  -56.2958 C.3       8 UNK        -0.1977 
     32 N          26.0912  -49.2525  -56.0519 N.am      8 UNK        -0.4342 
     33 C          26.1410  -50.4940  -56.5599 C.2       8 UNK         0.5039 
     34 O          25.4088  -50.9020  -57.4625 O.2       8 UNK        -0.5547 
     35 CA         27.2122  -51.4435  -55.9917 C.3       7 UNK         0.0281 
     36 CB         28.3500  -51.6208  -57.0116 C.3       7 UNK        -0.1963 
     37 N          27.7848  -50.9901  -54.7217 N.am      7 UNK        -0.4444 
     38 C          27.1583  -51.0265  -53.5383 C.2       7 UNK         0.5104 
     39 O          26.0361  -51.5040  -53.3692 O.2       7 UNK        -0.5100 
     40 CA         27.8978  -50.3874  -52.3507 C.3       6 UNK         0.0396 
     41 CB         28.9160  -51.3687  -51.7493 C.3       6 UNK        -0.1801 
     42 N          28.5715  -49.1356  -52.7105 N.am      6 UNK        -0.4747 
     43 C          27.9430  -47.9985  -53.0491 C.2       6 UNK         0.5012 
     44 O          26.7184  -47.8830  -53.0939 O.2       6 UNK        -0.5003 
     45 CA         28.8324  -46.8032  -53.4453 C.3       5 UNK         0.0782 
     46 C46        29.2581  -45.9689  -52.2064 C.3       11 UNK        -0.0868 
     47 S47        28.1801  -44.5160  -51.9766 S.3       11 UNK        -0.2515 
     48 C48        29.3892  -43.1465  -51.8818 C.3       11 UNK         0.0199 
     49 N          29.9730  -47.2276  -54.2622 N.am      5 UNK        -0.4607 
     50 C          29.8545  -47.6597  -55.5256 C.2       4 UNK         0.5031 
     51 O          28.7833  -47.7134  -56.1321 O.2       4 UNK        -0.5119 
     52 CA         31.1316  -48.1358  -56.2320 C.3       4 UNK         0.0263 
     53 CB         31.8977  -46.9405  -56.8179 C.3       4 UNK        -0.1967 
     54 N          32.0223  -48.9300  -55.3820 N.am      4 UNK        -0.4237 
     55 C          31.6958  -50.0972  -54.8071 C.2       3 UNK         0.4908 
     56 O          30.5732  -50.5964  -54.8599 O.2       3 UNK        -0.5102 
     57 CA         32.8004  -50.8272  -54.0334 C.3       3 UNK         0.0241 
     58 CB         33.7986  -51.4912  -54.9961 C.3       3 UNK        -0.1971 
     59 N          33.5044  -49.9078  -53.1432 N.am      3 UNK        -0.4139 
     60 C          33.1152  -49.6272  -51.8921 C.2       2 UNK         0.5016 
     61 O          32.1738  -50.1815  -51.3246 O.2       2 UNK        -0.5319 
     62 CA         33.8931  -48.5261  -51.1478 C.3       2 UNK         0.0286 
     63 CB         35.0380  -49.1381  -50.3250 C.3       2 UNK        -0.1963 
     64 N          34.4323  -47.4824  -52.0264 N.am      2 UNK        -0.4790 
     65 C          33.6842  -46.6709  -52.7885 C.2       1 UNK         0.5024 
     66 O          32.4561  -46.7226  -52.8362 O.2       1 UNK        -0.4888 
     67 H67        37.7904  -46.9989  -55.4541 H         1 UNK         0.0892 
     68 H68        37.3398  -48.7015  -55.3311 H         1 UNK         0.0892 
     69 H69        36.9205  -47.7794  -56.7769 H         1 UNK         0.0892 
     70 H70        36.4601  -45.6776  -54.2475 H         1 UNK         0.3107 
     71 H71        33.7360  -45.4020  -54.4869 H         1 UNK         0.0773 
     72 H72        35.6030  -44.5590  -52.2140 H         1 UNK         0.0680 
     73 H73        33.9352  -44.0680  -52.2770 H         1 UNK         0.0680 
     74 H74        34.0076  -41.4384  -52.6905 H         1 UNK         0.0650 
     75 H75        34.0618  -40.9453  -54.3631 H         1 UNK         0.0650 
     76 H76        31.9439  -42.2639  -51.8807 H         1 UNK         0.1397 
     77 H77        28.9155  -43.6855  -54.5664 H         1 UNK         0.1363 
     78 H78        32.7701  -42.5761  -56.0740 H         1 UNK         0.1355 
     79 H79        31.1985  -43.8782  -57.4638 H         1 UNK         0.0707 
     80 H80        29.6585  -44.3984  -56.8175 H         1 UNK         0.0707 
     81 H81        29.5120  -43.7967  -59.4310 H         1 UNK         0.1034 
     82 H82        28.8352  -42.3086  -59.9699 H         1 UNK         0.1034 
     83 H83        27.1266  -43.2911  -57.7972 H         1 UNK         0.0482 
     84 H84        25.5390  -41.1118  -60.2977 H         1 UNK         0.3460 
     85 H85        26.9822  -41.0085  -59.3217 H         1 UNK         0.3460 
     86 H86        27.1106  -45.4439  -57.9246 H         1 UNK         0.2989 
     87 H87        26.8525  -47.7920  -60.3460 H         1 UNK         0.0559 
     88 H88        29.5773  -47.5804  -58.9551 H         1 UNK         0.0848 
     89 H89        29.3130  -47.8366  -60.6731 H         1 UNK         0.0848 
     90 H90        28.8376  -49.0766  -59.5245 H         1 UNK         0.0848 
     91 H91        27.5976  -47.8441  -57.5082 H         1 UNK         0.3144 
     92 H92        25.5545  -47.2733  -55.8942 H         1 UNK         0.0727 
     93 H93        23.4041  -49.1984  -56.9287 H         1 UNK         0.0790 
     94 H94        23.1817  -47.5033  -56.5264 H         1 UNK         0.0790 
     95 H95        23.5673  -48.6561  -55.2587 H         1 UNK         0.0790 
     96 H96        26.7571  -49.0301  -55.3237 H         1 UNK         0.3215 
     97 H97        26.7384  -52.4140  -55.8292 H         1 UNK         0.0863 
     98 H98        28.8626  -50.6780  -57.2085 H         1 UNK         0.0808 
     99 H99        27.9697  -51.9914  -57.9645 H         1 UNK         0.0808 
    100 H100       29.0920  -52.3370  -56.6582 H         1 UNK         0.0808 
    101 H101       28.7476  -50.6558  -54.7515 H         1 UNK         0.3118 
    102 H102       27.1562  -50.1587  -51.5823 H         1 UNK         0.0546 
    103 H103       29.3893  -50.9536  -50.8593 H         1 UNK         0.0828 
    104 H104       29.7057  -51.6214  -52.4577 H         1 UNK         0.0828 
    105 H105       28.4325  -52.3007  -51.4539 H         1 UNK         0.0828 
    106 H106       29.5815  -49.1556  -52.7392 H         1 UNK         0.3005 
    107 H107       28.2207  -46.1717  -54.0944 H         1 UNK         0.1257 
    108 H108       30.2787  -45.6086  -52.3209 H         1 UNK         0.0775 
    109 H109       29.2687  -46.5582  -51.2872 H         1 UNK         0.0775 
    110 H110       28.8422  -42.2104  -51.7634 H         1 UNK         0.0840 
    111 H111       29.9712  -43.2786  -50.9682 H         1 UNK         0.0840 
    112 H112       30.8919  -47.1790  -53.8289 H         1 UNK         0.2987 
    113 H113       30.8249  -48.7796  -57.0588 H         1 UNK         0.0785 
    114 H114       32.7955  -47.2626  -57.3459 H         1 UNK         0.0798 
    115 H115       31.2805  -46.3956  -57.5324 H         1 UNK         0.0798 
    116 H116       32.1992  -46.2363  -56.0425 H         1 UNK         0.0798 
    117 H117       32.9837  -48.5999  -55.2985 H         1 UNK         0.3079 
    118 H118       32.3305  -51.6179  -53.4439 H         1 UNK         0.0794 
    119 H119       34.5547  -52.0569  -54.4514 H         1 UNK         0.0786 
    120 H120       34.3141  -50.7610  -55.6210 H         1 UNK         0.0786 
    121 H121       33.2899  -52.1891  -55.6626 H         1 UNK         0.0786 
    122 H122       34.2431  -49.3524  -53.5577 H         1 UNK         0.3032 
    123 H123       33.1916  -48.0489  -50.4596 H         1 UNK         0.1094 
    124 H124       35.7878  -49.6085  -50.9623 H         1 UNK         0.0794 
    125 H125       35.5376  -48.3841  -49.7164 H         1 UNK         0.0794 
    126 H126       34.6625  -49.9036  -49.6442 H         1 UNK         0.0794 
    127 H127       35.4369  -47.3842  -52.0613 H         1 UNK         0.3016 
@<TRIPOS>BOND
     1    1    2 1    
     2    1   67 1    
     3    1   68 1    
     4    1   69 1    
     5    2    3 2    
     6    2    4 am   BACKBONE|DICT|INTERRES
     7    4    5 1    
     8    4   70 1    
     9    5    6 1    
    10    5   65 1    
    11    5   71 1    
    12    6    7 1    
    13    6   72 1    
    14    6   73 1    
    15    7    8 1    
    16    8    9 1    
    17    8   74 1    
    18    8   75 1    
    19    9   10 ar   
    20    9   14 ar   
    21   10   11 ar   
    22   10   76 1    
    23   11   12 ar   
    24   11   48 1    
    25   12   13 ar   
    26   12   77 1    
    27   13   14 ar   
    28   13   15 1    
    29   14   78 1    
    30   15   16 1    
    31   15   79 1    
    32   15   80 1    
    33   16   17 1    
    34   17   18 1    
    35   17   81 1    
    36   17   82 1    
    37   18   19 1    
    38   18   22 1    
    39   18   83 1    
    40   19   20 am   BACKBONE|DICT|INTERRES
    41   19   21 2    
    42   20   84 1    
    43   20   85 1    
    44   22   23 am   BACKBONE|DICT|INTERRES
    45   22   86 1    
    46   23   24 2    
    47   23   25 1    
    48   25   26 1    
    49   25   27 1    
    50   25   87 1    
    51   26   88 1    
    52   26   89 1    
    53   26   90 1    
    54   27   28 am   BACKBONE|DICT|INTERRES
    55   27   91 1    
    56   28   29 2    
    57   28   30 1    
    58   30   31 1    
    59   30   32 1    
    60   30   92 1    
    61   31   93 1    
    62   31   94 1    
    63   31   95 1    
    64   32   33 am   BACKBONE|DICT|INTERRES
    65   32   96 1    
    66   33   34 2    
    67   33   35 1    
    68   35   36 1    
    69   35   37 1    
    70   35   97 1    
    71   36   98 1    
    72   36   99 1    
    73   36  100 1    
    74   37   38 am   BACKBONE|DICT|INTERRES
    75   37  101 1    
    76   38   39 2    
    77   38   40 1    
    78   40   41 1    
    79   40   42 1    
    80   40  102 1    
    81   41  103 1    
    82   41  104 1    
    83   41  105 1    
    84   42   43 am   BACKBONE|DICT|INTERRES
    85   42  106 1    
    86   43   44 2    
    87   43   45 1    
    88   45   46 1    
    89   45   49 1    
    90   45  107 1    
    91   46   47 1    
    92   46  108 1    
    93   46  109 1    
    94   47   48 1    
    95   48  110 1    
    96   48  111 1    
    97   49   50 am   BACKBONE|DICT|INTERRES
    98   49  112 1    
    99   50   51 2    
   100   50   52 1    
   101   52   53 1    
   102   52   54 1    
   103   52  113 1    
   104   53  114 1    
   105   53  115 1    
   106   53  116 1    
   107   54   55 am   BACKBONE|DICT|INTERRES
   108   54  117 1    
   109   55   56 2    
   110   55   57 1    
   111   57   58 1    
   112   57   59 1    
   113   57  118 1    
   114   58  119 1    
   115   58  120 1    
   116   58  121 1    
   117   59   60 am   BACKBONE|DICT|INTERRES
   118   59  122 1    
   119   60   61 2    
   120   60   62 1    
   121   62   63 1    
   122   62   64 1    
   123   62  123 1    
   124   63  124 1    
   125   63  125 1    
   126   63  126 1    
   127   64   65 am   BACKBONE|DICT|INTERRES
   128   64  127 1    
   129   65   66 2    
@<TRIPOS>SUBSTRUCTURE
     1 UNK         1 GROUP             0       ****    0 ROOT    
