@<TRIPOS>MOLECULE
3R134
127   129    1
SMALL
USER_CHARGES


@<TRIPOS>ATOM
      1 CA         37.8244  -47.4751  -50.8948 C.3       0 UNK        -0.1968 
      2 C          36.6134  -47.3822  -51.8104 C.2       0 UNK         0.4852 
      3 O          36.0959  -48.4119  -52.2479 O.2       0 UNK        -0.5359 
      4 N          36.1365  -46.1582  -52.0872 N.am      1 UNK        -0.4300 
      5 CA         35.0116  -45.8753  -52.9934 C.3       1 UNK         0.0863 
      6 C6         34.9291  -44.3741  -53.3840 C.3       11 UNK        -0.0953 
      7 S7         34.7449  -44.1570  -55.1867 S.3       11 UNK        -0.2369 
      8 C8         33.5138  -42.8233  -55.3010 C.3       11 UNK         0.0226 
      9 C9         32.0832  -43.3439  -55.3068 C.ar      11 UNK        -0.0699 
     10 C10        31.2842  -43.2439  -54.1635 C.ar      11 UNK        -0.0804 
     11 C11        29.9430  -43.6431  -54.1932 C.ar      11 UNK        -0.0871 
     12 C12        29.4041  -44.1348  -55.3873 C.ar      11 UNK        -0.1008 
     13 C13        30.2039  -44.2838  -56.5232 C.ar      11 UNK        -0.0735 
     14 C14        31.5419  -43.8830  -56.4779 C.ar      11 UNK        -0.0945 
     15 C15        29.6251  -44.9030  -57.7877 C.3       11 UNK         0.0169 
     16 S16        29.5393  -43.7332  -59.1771 S.3       11 UNK        -0.2669 
     17 C17        28.3024  -42.5206  -58.5885 C.3       11 UNK        -0.0850 
     18 CA         26.8604  -42.7222  -59.1380 C.3       10 UNK         0.0855 
     19 C          26.7593  -42.7321  -60.6876 C.2       10 UNK         0.5543 
     20 N          27.1476  -41.6470  -61.3435 N.am      10 UNK        -0.7343 
     21 O          26.3273  -43.7079  -61.3008 O.2       10 UNK        -0.5027 
     22 N          26.1780  -43.8835  -58.5552 N.am      10 UNK        -0.4495 
     23 C          25.6003  -43.9148  -57.3490 C.2       10 UNK         0.4903 
     24 O          25.6845  -43.0008  -56.5284 O.2       10 UNK        -0.4860 
     25 CA         24.7495  -45.1507  -57.0000 C.3       9 UNK         0.0227 
     26 CB         23.2582  -44.8478  -57.2217 C.3       9 UNK        -0.1964 
     27 N          25.1136  -46.3508  -57.7600 N.am      9 UNK        -0.4231 
     28 C          26.1780  -47.1121  -57.4809 C.2       9 UNK         0.5014 
     29 O          26.9576  -46.8801  -56.5591 O.2       9 UNK        -0.5270 
     30 CA         26.4264  -48.3079  -58.4050 C.3       8 UNK         0.0284 
     31 CB         27.1748  -47.8635  -59.6748 C.3       8 UNK        -0.1977 
     32 N          27.2224  -49.3152  -57.7048 N.am      8 UNK        -0.4342 
     33 C          27.0880  -50.6390  -57.8469 C.2       8 UNK         0.5039 
     34 O          26.2504  -51.1650  -58.5819 O.2       8 UNK        -0.5547 
     35 CA         28.0466  -51.5396  -57.0525 C.3       7 UNK         0.0281 
     36 CB         29.3972  -51.6651  -57.7776 C.3       7 UNK        -0.1963 
     37 N          28.2689  -51.0567  -55.6890 N.am      7 UNK        -0.4444 
     38 C          27.5456  -51.4271  -54.6231 C.2       7 UNK         0.5104 
     39 O          26.5889  -52.2005  -54.6831 O.2       7 UNK        -0.5100 
     40 CA         27.9628  -50.8678  -53.2485 C.3       6 UNK         0.0396 
     41 CB         28.8349  -51.8869  -52.4985 C.3       6 UNK        -0.1801 
     42 N          28.6831  -49.5975  -53.3377 N.am      6 UNK        -0.4747 
     43 C          28.1129  -48.4215  -53.6329 C.2       6 UNK         0.5012 
     44 O          26.8951  -48.2726  -53.7362 O.2       6 UNK        -0.5003 
     45 CA         29.0604  -47.2259  -53.8769 C.3       5 UNK         0.0782 
     46 C46        29.2236  -46.3408  -52.6115 C.3       11 UNK        -0.0868 
     47 S47        28.0242  -44.9667  -52.5948 S.3       11 UNK        -0.2515 
     48 C48        29.0872  -43.5169  -52.9335 C.3       11 UNK         0.0199 
     49 N          30.3584  -47.6175  -54.4383 N.am      5 UNK        -0.4607 
     50 C          30.5430  -48.2100  -55.6258 C.2       4 UNK         0.5031 
     51 O          29.6316  -48.5010  -56.3966 O.2       4 UNK        -0.5119 
     52 CA         31.9802  -48.6129  -55.9858 C.3       4 UNK         0.0263 
     53 CB         32.7604  -47.4241  -56.5703 C.3       4 UNK        -0.1967 
     54 N          32.6824  -49.1606  -54.8237 N.am      4 UNK        -0.4237 
     55 C          32.4390  -50.3726  -54.3021 C.2       3 UNK         0.4908 
     56 O          31.6725  -51.1921  -54.8078 O.2       3 UNK        -0.5102 
     57 CA         33.1384  -50.7169  -52.9752 C.3       3 UNK         0.0241 
     58 CB         34.5336  -51.3059  -53.2350 C.3       3 UNK        -0.1971 
     59 N          33.2477  -49.5624  -52.0785 N.am      3 UNK        -0.4139 
     60 C          32.1975  -48.9723  -51.4835 C.2       2 UNK         0.5016 
     61 O          31.0443  -49.3911  -51.5704 O.2       2 UNK        -0.5319 
     62 CA         32.4585  -47.6660  -50.7071 C.3       2 UNK         0.0286 
     63 CB         32.7169  -47.9654  -49.2226 C.3       2 UNK        -0.1963 
     64 N          33.5740  -46.8822  -51.2459 N.am      2 UNK        -0.4790 
     65 C          33.6530  -46.4252  -52.5050 C.2       1 UNK         0.5024 
     66 O          32.7155  -46.4965  -53.2959 O.2       1 UNK        -0.4888 
     67 H67        38.1684  -46.4929  -50.5713 H         1 UNK         0.0892 
     68 H68        37.5801  -48.0591  -50.0080 H         1 UNK         0.0892 
     69 H69        38.6464  -47.9690  -51.4121 H         1 UNK         0.0892 
     70 H70        36.5898  -45.3502  -51.6838 H         1 UNK         0.3107 
     71 H71        35.2340  -46.4504  -53.8953 H         1 UNK         0.0773 
     72 H72        35.8427  -43.8476  -53.1040 H         1 UNK         0.0680 
     73 H73        34.1245  -43.8585  -52.8557 H         1 UNK         0.0680 
     74 H74        33.6916  -42.2720  -56.2255 H         1 UNK         0.0650 
     75 H75        33.6668  -42.1063  -54.4929 H         1 UNK         0.0650 
     76 H76        31.7048  -42.8381  -53.2539 H         1 UNK         0.1397 
     77 H77        28.3638  -44.4292  -55.4259 H         1 UNK         0.1363 
     78 H78        32.1593  -43.9793  -57.3605 H         1 UNK         0.1355 
     79 H79        30.2359  -45.7581  -58.0788 H         1 UNK         0.0707 
     80 H80        28.6259  -45.2930  -57.6052 H         1 UNK         0.0707 
     81 H81        28.6630  -41.5304  -58.8703 H         1 UNK         0.1034 
     82 H82        28.2854  -42.5082  -57.4985 H         1 UNK         0.1034 
     83 H83        26.2788  -41.8485  -58.8362 H         1 UNK         0.0482 
     84 H84        27.4998  -40.8380  -60.8565 H         1 UNK         0.3460 
     85 H85        27.0882  -41.6376  -62.3498 H         1 UNK         0.3460 
     86 H86        26.0408  -44.6512  -59.1979 H         1 UNK         0.2989 
     87 H87        24.8948  -45.3562  -55.9369 H         1 UNK         0.0559 
     88 H88        22.9469  -43.9771  -56.6426 H         1 UNK         0.0848 
     89 H89        22.6317  -45.6827  -56.9069 H         1 UNK         0.0848 
     90 H90        23.0380  -44.6368  -58.2689 H         1 UNK         0.0848 
     91 H91        24.5183  -46.6012  -58.5371 H         1 UNK         0.3144 
     92 H92        25.4569  -48.7281  -58.6812 H         1 UNK         0.0727 
     93 H93        28.1465  -47.4290  -59.4345 H         1 UNK         0.0790 
     94 H94        26.6085  -47.1128  -60.2274 H         1 UNK         0.0790 
     95 H95        27.3423  -48.7031  -60.3496 H         1 UNK         0.0790 
     96 H96        27.9350  -48.9406  -57.0775 H         1 UNK         0.3215 
     97 H97        27.6040  -52.5375  -57.0107 H         1 UNK         0.0863 
     98 H98        30.0772  -52.3243  -57.2374 H         1 UNK         0.0808 
     99 H99        29.8908  -50.6999  -57.8928 H         1 UNK         0.0808 
    100 H100       29.2642  -52.0825  -58.7766 H         1 UNK         0.0808 
    101 H101       29.0069  -50.3748  -55.5639 H         1 UNK         0.3118 
    102 H102       27.0534  -50.7079  -52.6655 H         1 UNK         0.0546 
    103 H103       29.7655  -52.0898  -53.0296 H         1 UNK         0.0828 
    104 H104       28.3124  -52.8371  -52.3807 H         1 UNK         0.0828 
    105 H105       29.0910  -51.5315  -51.5002 H         1 UNK         0.0828 
    106 H106       29.6804  -49.6184  -53.1525 H         1 UNK         0.3005 
    107 H107       28.5844  -46.6357  -54.6588 H         1 UNK         0.1257 
    108 H108       30.2245  -45.9108  -52.5651 H         1 UNK         0.0775 
    109 H109       29.1191  -46.9206  -51.6922 H         1 UNK         0.0775 
    110 H110       28.4537  -42.6343  -53.0298 H         1 UNK         0.0840 
    111 H111       29.7182  -43.3481  -52.0594 H         1 UNK         0.0840 
    112 H112       31.1813  -47.3454  -53.9071 H         1 UNK         0.2987 
    113 H113       31.9291  -49.3898  -56.7519 H         1 UNK         0.0785 
    114 H114       32.2899  -47.0679  -57.4872 H         1 UNK         0.0798 
    115 H115       33.7844  -47.7021  -56.8193 H         1 UNK         0.0798 
    116 H116       32.7998  -46.5794  -55.8826 H         1 UNK         0.0798 
    117 H117       33.2868  -48.5275  -54.3203 H         1 UNK         0.3079 
    118 H118       32.5364  -51.4772  -52.4725 H         1 UNK         0.0794 
    119 H119       34.4712  -52.1911  -53.8696 H         1 UNK         0.0786 
    120 H120       35.0164  -51.6068  -52.3050 H         1 UNK         0.0786 
    121 H121       35.1883  -50.5909  -53.7350 H         1 UNK         0.0786 
    122 H122       34.1704  -49.1506  -51.9740 H         1 UNK         0.3032 
    123 H123       31.5564  -47.0561  -50.7826 H         1 UNK         0.1094 
    124 H124       32.8164  -47.0472  -48.6433 H         1 UNK         0.0794 
    125 H125       31.8900  -48.5309  -48.7900 H         1 UNK         0.0794 
    126 H126       33.6241  -48.5542  -49.0803 H         1 UNK         0.0794 
    127 H127       34.3903  -46.7888  -50.6591 H         1 UNK         0.3016 
@<TRIPOS>BOND
     1    1    2 1    
     2    1   67 1    
     3    1   68 1    
     4    1   69 1    
     5    2    3 2    
     6    2    4 am   BACKBONE|DICT|INTERRES
     7    4    5 1    
     8    4   70 1    
     9    5    6 1    
    10    5   65 1    
    11    5   71 1    
    12    6    7 1    
    13    6   72 1    
    14    6   73 1    
    15    7    8 1    
    16    8    9 1    
    17    8   74 1    
    18    8   75 1    
    19    9   10 ar   
    20    9   14 ar   
    21   10   11 ar   
    22   10   76 1    
    23   11   12 ar   
    24   11   48 1    
    25   12   13 ar   
    26   12   77 1    
    27   13   14 ar   
    28   13   15 1    
    29   14   78 1    
    30   15   16 1    
    31   15   79 1    
    32   15   80 1    
    33   16   17 1    
    34   17   18 1    
    35   17   81 1    
    36   17   82 1    
    37   18   19 1    
    38   18   22 1    
    39   18   83 1    
    40   19   20 am   BACKBONE|DICT|INTERRES
    41   19   21 2    
    42   20   84 1    
    43   20   85 1    
    44   22   23 am   BACKBONE|DICT|INTERRES
    45   22   86 1    
    46   23   24 2    
    47   23   25 1    
    48   25   26 1    
    49   25   27 1    
    50   25   87 1    
    51   26   88 1    
    52   26   89 1    
    53   26   90 1    
    54   27   28 am   BACKBONE|DICT|INTERRES
    55   27   91 1    
    56   28   29 2    
    57   28   30 1    
    58   30   31 1    
    59   30   32 1    
    60   30   92 1    
    61   31   93 1    
    62   31   94 1    
    63   31   95 1    
    64   32   33 am   BACKBONE|DICT|INTERRES
    65   32   96 1    
    66   33   34 2    
    67   33   35 1    
    68   35   36 1    
    69   35   37 1    
    70   35   97 1    
    71   36   98 1    
    72   36   99 1    
    73   36  100 1    
    74   37   38 am   BACKBONE|DICT|INTERRES
    75   37  101 1    
    76   38   39 2    
    77   38   40 1    
    78   40   41 1    
    79   40   42 1    
    80   40  102 1    
    81   41  103 1    
    82   41  104 1    
    83   41  105 1    
    84   42   43 am   BACKBONE|DICT|INTERRES
    85   42  106 1    
    86   43   44 2    
    87   43   45 1    
    88   45   46 1    
    89   45   49 1    
    90   45  107 1    
    91   46   47 1    
    92   46  108 1    
    93   46  109 1    
    94   47   48 1    
    95   48  110 1    
    96   48  111 1    
    97   49   50 am   BACKBONE|DICT|INTERRES
    98   49  112 1    
    99   50   51 2    
   100   50   52 1    
   101   52   53 1    
   102   52   54 1    
   103   52  113 1    
   104   53  114 1    
   105   53  115 1    
   106   53  116 1    
   107   54   55 am   BACKBONE|DICT|INTERRES
   108   54  117 1    
   109   55   56 2    
   110   55   57 1    
   111   57   58 1    
   112   57   59 1    
   113   57  118 1    
   114   58  119 1    
   115   58  120 1    
   116   58  121 1    
   117   59   60 am   BACKBONE|DICT|INTERRES
   118   59  122 1    
   119   60   61 2    
   120   60   62 1    
   121   62   63 1    
   122   62   64 1    
   123   62  123 1    
   124   63  124 1    
   125   63  125 1    
   126   63  126 1    
   127   64   65 am   BACKBONE|DICT|INTERRES
   128   64  127 1    
   129   65   66 2    
@<TRIPOS>SUBSTRUCTURE
     1 UNK         1 GROUP             0       ****    0 ROOT    
