@<TRIPOS>MOLECULE
3R134
127   129    1
SMALL
USER_CHARGES


@<TRIPOS>ATOM
      1 CA         30.9155  -42.0410  -51.7220 C.3       0 UNK        -0.1968 
      2 C          31.6269  -43.3773  -51.5723 C.2       0 UNK         0.4852 
      3 O          31.5290  -44.0080  -50.5191 O.2       0 UNK        -0.5359 
      4 N          32.3259  -43.8315  -52.6208 N.am      1 UNK        -0.4300 
      5 CA         33.1321  -45.0594  -52.6521 C.3       1 UNK         0.0863 
      6 C6         34.3702  -44.9504  -53.5916 C.3       11 UNK        -0.0953 
      7 S7         35.2384  -43.3365  -53.4769 S.3       11 UNK        -0.2369 
      8 C8         35.1421  -42.6137  -55.1591 C.3       11 UNK         0.0226 
      9 C9         33.8535  -42.9492  -55.8993 C.ar      11 UNK        -0.0699 
     10 C10        33.8853  -43.8534  -56.9653 C.ar      11 UNK        -0.0804 
     11 C11        32.7031  -44.2642  -57.5846 C.ar      11 UNK        -0.0871 
     12 C12        31.4818  -43.7502  -57.1434 C.ar      11 UNK        -0.1008 
     13 C13        31.4383  -42.8356  -56.0867 C.ar      11 UNK        -0.0735 
     14 C14        32.6295  -42.4140  -55.4862 C.ar      11 UNK        -0.0945 
     15 C15        30.0938  -42.3616  -55.5630 C.3       11 UNK         0.0169 
     16 S16        29.3349  -43.6702  -54.5515 S.3       11 UNK        -0.2669 
     17 C17        27.7159  -42.9388  -54.1245 C.3       11 UNK        -0.0850 
     18 CA         26.5532  -43.3685  -55.0647 C.3       10 UNK         0.0855 
     19 C          26.5710  -42.6243  -56.4247 C.2       10 UNK         0.5543 
     20 N          26.2796  -41.3309  -56.4255 N.am      10 UNK        -0.7343 
     21 O          26.8607  -43.1976  -57.4734 O.2       10 UNK        -0.5027 
     22 N          26.5003  -44.8183  -55.2677 N.am      10 UNK        -0.4495 
     23 C          25.9597  -45.7212  -54.4462 C.2       10 UNK         0.4903 
     24 O          25.4290  -45.4301  -53.3735 O.2       10 UNK        -0.4860 
     25 CA         26.0466  -47.2024  -54.8745 C.3       9 UNK         0.0227 
     26 CB         24.7776  -47.9983  -54.5063 C.3       9 UNK        -0.1964 
     27 N          26.4102  -47.4109  -56.2832 N.am      9 UNK        -0.4231 
     28 C          25.7141  -47.0646  -57.3787 C.2       9 UNK         0.5014 
     29 O          24.6167  -46.5071  -57.3581 O.2       9 UNK        -0.5270 
     30 CA         26.3649  -47.3950  -58.7297 C.3       8 UNK         0.0284 
     31 CB         27.5023  -46.4079  -59.0455 C.3       8 UNK        -0.1977 
     32 N          26.8858  -48.7619  -58.7324 N.am      8 UNK        -0.4342 
     33 C          26.1927  -49.8386  -59.1289 C.2       8 UNK         0.5039 
     34 O          25.0643  -49.7872  -59.6200 O.2       8 UNK        -0.5547 
     35 CA         26.8684  -51.2112  -58.9490 C.3       7 UNK         0.0281 
     36 CB         27.6237  -51.6114  -60.2269 C.3       7 UNK        -0.1963 
     37 N          27.7884  -51.2500  -57.8097 N.am      7 UNK        -0.4444 
     38 C          27.4099  -51.1932  -56.5250 C.2       7 UNK         0.5104 
     39 O          26.2356  -51.2029  -56.1564 O.2       7 UNK        -0.5100 
     40 CA         28.5268  -51.0782  -55.4731 C.3       6 UNK         0.0396 
     41 CB         28.8250  -52.4484  -54.8452 C.3       6 UNK        -0.1801 
     42 N          29.7779  -50.4979  -55.9763 N.am      6 UNK        -0.4747 
     43 C          29.9303  -49.2473  -56.4335 C.2       6 UNK         0.5012 
     44 O          28.9921  -48.4564  -56.5509 O.2       6 UNK        -0.5003 
     45 CA         31.3585  -48.8270  -56.8393 C.3       5 UNK         0.0782 
     46 C46        31.4486  -47.3396  -57.2659 C.3       11 UNK        -0.0868 
     47 S47        33.0543  -46.9657  -58.0442 S.3       11 UNK        -0.2515 
     48 C48        32.7514  -45.2949  -58.7010 C.3       11 UNK         0.0199 
     49 N          32.3160  -49.1399  -55.7730 N.am      5 UNK        -0.4607 
     50 C          32.9270  -50.3182  -55.5997 C.2       4 UNK         0.5031 
     51 O          32.6999  -51.3094  -56.2936 O.2       4 UNK        -0.5119 
     52 CA         33.9212  -50.4155  -54.4367 C.3       4 UNK         0.0263 
     53 CB         35.1576  -49.5357  -54.6927 C.3       4 UNK        -0.1967 
     54 N          33.2742  -50.0035  -53.1927 N.am      4 UNK        -0.4237 
     55 C          32.7686  -50.8415  -52.2758 C.2       3 UNK         0.4908 
     56 O          32.8615  -52.0678  -52.3400 O.2       3 UNK        -0.5102 
     57 CA         32.0312  -50.2114  -51.0778 C.3       3 UNK         0.0241 
     58 CB         32.9909  -50.0287  -49.8907 C.3       3 UNK        -0.1971 
     59 N          31.4136  -48.9237  -51.4025 N.am      3 UNK        -0.4139 
     60 C          30.3685  -48.7713  -52.2275 C.2       2 UNK         0.5016 
     61 O          29.7187  -49.7125  -52.6776 O.2       2 UNK        -0.5319 
     62 CA         29.9956  -47.3369  -52.6439 C.3       2 UNK         0.0286 
     63 CB         28.7062  -46.8843  -51.9401 C.3       2 UNK        -0.1963 
     64 N          31.0412  -46.3359  -52.4024 N.am      2 UNK        -0.4790 
     65 C          32.2526  -46.2907  -52.9755 C.2       1 UNK         0.5024 
     66 O          32.6707  -47.1765  -53.7238 O.2       1 UNK        -0.4888 
     67 H67        29.8360  -42.1879  -51.7085 H         1 UNK         0.0892 
     68 H68        31.1797  -41.5400  -52.6520 H         1 UNK         0.0892 
     69 H69        31.1807  -41.3804  -50.8970 H         1 UNK         0.0892 
     70 H70        32.3193  -43.3155  -53.4888 H         1 UNK         0.3107 
     71 H71        33.5221  -45.2249  -51.6456 H         1 UNK         0.0773 
     72 H72        34.0957  -45.1616  -54.6234 H         1 UNK         0.0680 
     73 H73        35.0900  -45.7284  -53.3317 H         1 UNK         0.0680 
     74 H74        35.2435  -41.5303  -55.0829 H         1 UNK         0.0650 
     75 H75        36.0069  -42.9580  -55.7282 H         1 UNK         0.0650 
     76 H76        34.8273  -44.2778  -57.2852 H         1 UNK         0.1397 
     77 H77        30.5588  -44.0862  -57.5969 H         1 UNK         0.1363 
     78 H78        32.6063  -41.7069  -54.6686 H         1 UNK         0.1355 
     79 H79        29.4437  -42.1138  -56.4026 H         1 UNK         0.0707 
     80 H80        30.2031  -41.4520  -54.9709 H         1 UNK         0.0707 
     81 H81        27.8021  -41.8523  -54.0673 H         1 UNK         0.1034 
     82 H82        27.4799  -43.2595  -53.1088 H         1 UNK         0.1034 
     83 H83        25.6139  -43.0782  -54.5895 H         1 UNK         0.0482 
     84 H84        26.0321  -40.8472  -55.5765 H         1 UNK         0.3460 
     85 H85        26.2910  -40.8299  -57.3001 H         1 UNK         0.3460 
     86 H86        26.8874  -45.1238  -56.1497 H         1 UNK         0.2989 
     87 H87        26.8725  -47.6271  -54.3030 H         1 UNK         0.0559 
     88 H88        23.8898  -47.5933  -54.9926 H         1 UNK         0.0848 
     89 H89        24.5975  -47.9744  -53.4309 H         1 UNK         0.0848 
     90 H90        24.8702  -49.0458  -54.7940 H         1 UNK         0.0848 
     91 H91        27.3320  -47.8250  -56.4207 H         1 UNK         0.3144 
     92 H92        25.6056  -47.2894  -59.5077 H         1 UNK         0.0727 
     93 H93        27.1222  -45.3874  -59.1054 H         1 UNK         0.0790 
     94 H94        27.9680  -46.6342  -60.0048 H         1 UNK         0.0790 
     95 H95        28.2824  -46.4189  -58.2839 H         1 UNK         0.0790 
     96 H96        27.7860  -48.9032  -58.2928 H         1 UNK         0.3215 
     97 H97        26.0792  -51.9457  -58.7732 H         1 UNK         0.0863 
     98 H98        28.0455  -52.6131  -60.1421 H         1 UNK         0.0808 
     99 H99        28.4373  -50.9204  -60.4511 H         1 UNK         0.0808 
    100 H100       26.9544  -51.6162  -61.0885 H         1 UNK         0.0808 
    101 H101       28.7771  -51.2712  -58.0127 H         1 UNK         0.3118 
    102 H102       28.1509  -50.4183  -54.6889 H         1 UNK         0.0546 
    103 H103       27.9183  -52.8969  -54.4368 H         1 UNK         0.0828 
    104 H104       29.5369  -52.3582  -54.0241 H         1 UNK         0.0828 
    105 H105       29.2367  -53.1471  -55.5743 H         1 UNK         0.0828 
    106 H106       30.6063  -51.0800  -55.9244 H         1 UNK         0.3005 
    107 H107       31.6038  -49.4293  -57.7175 H         1 UNK         0.1257 
    108 H108       31.2988  -46.6793  -56.4089 H         1 UNK         0.0775 
    109 H109       30.6693  -47.0951  -57.9898 H         1 UNK         0.0775 
    110 H110       33.5520  -45.0377  -59.3961 H         1 UNK         0.0840 
    111 H111       31.8285  -45.2872  -59.2831 H         1 UNK         0.0840 
    112 H112       32.5240  -48.3793  -55.1311 H         1 UNK         0.2987 
    113 H113       34.2564  -51.4525  -54.3647 H         1 UNK         0.0785 
    114 H114       35.6495  -49.8175  -55.6247 H         1 UNK         0.0798 
    115 H115       35.8907  -49.6458  -53.8936 H         1 UNK         0.0798 
    116 H116       34.9029  -48.4775  -54.7664 H         1 UNK         0.0798 
    117 H117       33.1050  -49.0088  -53.0902 H         1 UNK         0.3079 
    118 H118       31.2399  -50.9018  -50.7772 H         1 UNK         0.0794 
    119 H119       33.8005  -49.3368  -50.1267 H         1 UNK         0.0786 
    120 H120       33.4464  -50.9790  -49.6086 H         1 UNK         0.0786 
    121 H121       32.4684  -49.6489  -49.0124 H         1 UNK         0.0786 
    122 H122       31.8660  -48.0921  -51.0525 H         1 UNK         0.3032 
    123 H123       29.8075  -47.3619  -53.7200 H         1 UNK         0.1094 
    124 H124       28.3593  -45.9261  -52.3281 H         1 UNK         0.0794 
    125 H125       27.9008  -47.6042  -52.0909 H         1 UNK         0.0794 
    126 H126       28.8503  -46.7794  -50.8642 H         1 UNK         0.0794 
    127 H127       30.8092  -45.5793  -51.7688 H         1 UNK         0.3016 
@<TRIPOS>BOND
     1    1    2 1    
     2    1   67 1    
     3    1   68 1    
     4    1   69 1    
     5    2    3 2    
     6    2    4 am   BACKBONE|DICT|INTERRES
     7    4    5 1    
     8    4   70 1    
     9    5    6 1    
    10    5   65 1    
    11    5   71 1    
    12    6    7 1    
    13    6   72 1    
    14    6   73 1    
    15    7    8 1    
    16    8    9 1    
    17    8   74 1    
    18    8   75 1    
    19    9   10 ar   
    20    9   14 ar   
    21   10   11 ar   
    22   10   76 1    
    23   11   12 ar   
    24   11   48 1    
    25   12   13 ar   
    26   12   77 1    
    27   13   14 ar   
    28   13   15 1    
    29   14   78 1    
    30   15   16 1    
    31   15   79 1    
    32   15   80 1    
    33   16   17 1    
    34   17   18 1    
    35   17   81 1    
    36   17   82 1    
    37   18   19 1    
    38   18   22 1    
    39   18   83 1    
    40   19   20 am   BACKBONE|DICT|INTERRES
    41   19   21 2    
    42   20   84 1    
    43   20   85 1    
    44   22   23 am   BACKBONE|DICT|INTERRES
    45   22   86 1    
    46   23   24 2    
    47   23   25 1    
    48   25   26 1    
    49   25   27 1    
    50   25   87 1    
    51   26   88 1    
    52   26   89 1    
    53   26   90 1    
    54   27   28 am   BACKBONE|DICT|INTERRES
    55   27   91 1    
    56   28   29 2    
    57   28   30 1    
    58   30   31 1    
    59   30   32 1    
    60   30   92 1    
    61   31   93 1    
    62   31   94 1    
    63   31   95 1    
    64   32   33 am   BACKBONE|DICT|INTERRES
    65   32   96 1    
    66   33   34 2    
    67   33   35 1    
    68   35   36 1    
    69   35   37 1    
    70   35   97 1    
    71   36   98 1    
    72   36   99 1    
    73   36  100 1    
    74   37   38 am   BACKBONE|DICT|INTERRES
    75   37  101 1    
    76   38   39 2    
    77   38   40 1    
    78   40   41 1    
    79   40   42 1    
    80   40  102 1    
    81   41  103 1    
    82   41  104 1    
    83   41  105 1    
    84   42   43 am   BACKBONE|DICT|INTERRES
    85   42  106 1    
    86   43   44 2    
    87   43   45 1    
    88   45   46 1    
    89   45   49 1    
    90   45  107 1    
    91   46   47 1    
    92   46  108 1    
    93   46  109 1    
    94   47   48 1    
    95   48  110 1    
    96   48  111 1    
    97   49   50 am   BACKBONE|DICT|INTERRES
    98   49  112 1    
    99   50   51 2    
   100   50   52 1    
   101   52   53 1    
   102   52   54 1    
   103   52  113 1    
   104   53  114 1    
   105   53  115 1    
   106   53  116 1    
   107   54   55 am   BACKBONE|DICT|INTERRES
   108   54  117 1    
   109   55   56 2    
   110   55   57 1    
   111   57   58 1    
   112   57   59 1    
   113   57  118 1    
   114   58  119 1    
   115   58  120 1    
   116   58  121 1    
   117   59   60 am   BACKBONE|DICT|INTERRES
   118   59  122 1    
   119   60   61 2    
   120   60   62 1    
   121   62   63 1    
   122   62   64 1    
   123   62  123 1    
   124   63  124 1    
   125   63  125 1    
   126   63  126 1    
   127   64   65 am   BACKBONE|DICT|INTERRES
   128   64  127 1    
   129   65   66 2    
@<TRIPOS>SUBSTRUCTURE
     1 UNK         1 GROUP             0       ****    0 ROOT    
