@<TRIPOS>MOLECULE
3R134
127   129    1
SMALL
USER_CHARGES


@<TRIPOS>ATOM
      1 CA         30.6726  -41.9819  -51.9866 C.3       0 UNK        -0.1968 
      2 C          31.8510  -42.8324  -51.5335 C.2       0 UNK         0.4852 
      3 O          32.7759  -42.3100  -50.9100 O.2       0 UNK        -0.5359 
      4 N          31.8139  -44.1337  -51.8386 N.am      1 UNK        -0.4300 
      5 CA         32.7927  -45.1425  -51.4326 C.3       1 UNK         0.0863 
      6 C6         33.7313  -45.5800  -52.5895 C.3       11 UNK        -0.0953 
      7 S7         34.7806  -44.2464  -53.2497 S.3       11 UNK        -0.2369 
      8 C8         34.9665  -44.7752  -54.9920 C.3       11 UNK         0.0226 
      9 C9         33.8235  -44.4147  -55.9483 C.ar      11 UNK        -0.0699 
     10 C10        33.9716  -44.7409  -57.3008 C.ar      11 UNK        -0.0804 
     11 C11        32.9895  -44.4012  -58.2363 C.ar      11 UNK        -0.0871 
     12 C12        31.8377  -43.7360  -57.8105 C.ar      11 UNK        -0.1008 
     13 C13        31.6612  -43.4128  -56.4617 C.ar      11 UNK        -0.0735 
     14 C14        32.6578  -43.7520  -55.5400 C.ar      11 UNK        -0.0945 
     15 C15        30.4227  -42.6569  -55.9928 C.3       11 UNK         0.0169 
     16 S16        28.8694  -43.3838  -56.6105 S.3       11 UNK        -0.2669 
     17 C17        27.7138  -42.9328  -55.2698 C.3       11 UNK        -0.0850 
     18 CA         27.5065  -44.1113  -54.2751 C.3       10 UNK         0.0855 
     19 C          26.7409  -43.6970  -52.9815 C.2       10 UNK         0.5543 
     20 N          25.9716  -44.5827  -52.3606 N.am      10 UNK        -0.7343 
     21 O          26.8766  -42.5710  -52.5096 O.2       10 UNK        -0.5027 
     22 N          27.0028  -45.3265  -54.9410 N.am      10 UNK        -0.4495 
     23 C          25.7972  -45.4927  -55.5027 C.2       10 UNK         0.4903 
     24 O          24.9133  -44.6352  -55.4984 O.2       10 UNK        -0.4860 
     25 CA         25.5236  -46.8383  -56.2029 C.3       9 UNK         0.0227 
     26 CB         25.3575  -46.6255  -57.7149 C.3       9 UNK        -0.1964 
     27 N          26.5576  -47.8551  -55.9667 N.am      9 UNK        -0.4231 
     28 C          26.6943  -48.5340  -54.8172 C.2       9 UNK         0.5014 
     29 O          25.9578  -48.3693  -53.8425 O.2       9 UNK        -0.5270 
     30 CA         27.8665  -49.5301  -54.7345 C.3       8 UNK         0.0284 
     31 CB         27.8630  -50.3814  -53.4462 C.3       8 UNK        -0.1977 
     32 N          27.9969  -50.3707  -55.9283 N.am      8 UNK        -0.4342 
     33 C          27.1110  -51.2689  -56.3845 C.2       8 UNK         0.5039 
     34 O          26.0270  -51.5078  -55.8481 O.2       8 UNK        -0.5547 
     35 CA         27.5251  -52.0276  -57.6596 C.3       7 UNK         0.0281 
     36 CB         26.5036  -53.1051  -58.0856 C.3       7 UNK        -0.1963 
     37 N          27.8244  -51.1194  -58.7728 N.am      7 UNK        -0.4444 
     38 C          26.9923  -50.2480  -59.3647 C.2       7 UNK         0.5104 
     39 O          25.8060  -50.1045  -59.0669 O.2       7 UNK        -0.5100 
     40 CA         27.6184  -49.3946  -60.4872 C.3       6 UNK         0.0396 
     41 CB         26.7092  -48.2441  -60.9669 C.3       6 UNK        -0.1801 
     42 N          28.9568  -48.8919  -60.1478 N.am      6 UNK        -0.4747 
     43 C          29.2902  -48.1268  -59.0958 C.2       6 UNK         0.5012 
     44 O          28.4846  -47.7213  -58.2518 O.2       6 UNK        -0.5003 
     45 CA         30.7896  -47.7729  -58.9835 C.3       5 UNK         0.0782 
     46 C46        31.1805  -46.6809  -60.0087 C.3       11 UNK        -0.0868 
     47 S47        32.9907  -46.4677  -60.1052 S.3       11 UNK        -0.2515 
     48 C48        33.2017  -44.7026  -59.7136 C.3       11 UNK         0.0199 
     49 N          31.1773  -47.3865  -57.6256 N.am      5 UNK        -0.4607 
     50 C          31.0887  -48.1616  -56.5406 C.2       4 UNK         0.5031 
     51 O          30.6651  -49.3217  -56.5514 O.2       4 UNK        -0.5119 
     52 CA         31.5203  -47.4920  -55.2253 C.3       4 UNK         0.0263 
     53 CB         30.4853  -46.4443  -54.7748 C.3       4 UNK        -0.1967 
     54 N          31.7474  -48.4450  -54.1367 N.am      4 UNK        -0.4237 
     55 C          32.7420  -49.3425  -54.0972 C.2       3 UNK         0.4908 
     56 O          33.6363  -49.4150  -54.9419 O.2       3 UNK        -0.5102 
     57 CA         32.7546  -50.2719  -52.8736 C.3       3 UNK         0.0241 
     58 CB         33.9559  -51.2367  -52.8566 C.3       3 UNK        -0.1971 
     59 N          32.7780  -49.4482  -51.6674 N.am      3 UNK        -0.4139 
     60 C          31.9057  -49.5116  -50.6544 C.2       2 UNK         0.5016 
     61 O          31.0089  -50.3504  -50.5660 O.2       2 UNK        -0.5319 
     62 CA         32.0437  -48.4309  -49.5641 C.3       2 UNK         0.0286 
     63 CB         32.8982  -48.9501  -48.3964 C.3       2 UNK        -0.1963 
     64 N          32.6138  -47.1706  -50.0623 N.am      2 UNK        -0.4790 
     65 C          31.9963  -46.3584  -50.9321 C.2       1 UNK         0.5024 
     66 O          30.8655  -46.5719  -51.3791 O.2       1 UNK        -0.4888 
     67 H67        30.9986  -41.2550  -52.7300 H         1 UNK         0.0892 
     68 H68        29.8764  -42.5842  -52.4230 H         1 UNK         0.0892 
     69 H69        30.2543  -41.4384  -51.1399 H         1 UNK         0.0892 
     70 H70        30.9809  -44.5322  -52.2504 H         1 UNK         0.3107 
     71 H71        33.3930  -44.7679  -50.6005 H         1 UNK         0.0773 
     72 H72        34.4011  -46.3760  -52.2591 H         1 UNK         0.0680 
     73 H73        33.1509  -45.9980  -53.4099 H         1 UNK         0.0680 
     74 H74        35.8816  -44.3198  -55.3729 H         1 UNK         0.0650 
     75 H75        35.1293  -45.8539  -55.0183 H         1 UNK         0.0650 
     76 H76        34.8688  -45.2452  -57.6344 H         1 UNK         0.1397 
     77 H77        31.0806  -43.4551  -58.5301 H         1 UNK         0.1363 
     78 H78        32.5230  -43.4786  -54.5048 H         1 UNK         0.1355 
     79 H79        30.4880  -41.6188  -56.3209 H         1 UNK         0.0707 
     80 H80        30.3952  -42.6379  -54.9033 H         1 UNK         0.0707 
     81 H81        26.7622  -42.6365  -55.7135 H         1 UNK         0.1034 
     82 H82        28.0898  -42.0444  -54.7593 H         1 UNK         0.1034 
     83 H83        28.4952  -44.3853  -53.9061 H         1 UNK         0.0482 
     84 H84        25.8602  -45.5123  -52.7348 H         1 UNK         0.3460 
     85 H85        25.4890  -44.3144  -51.5177 H         1 UNK         0.3460 
     86 H86        27.6544  -46.0912  -55.0098 H         1 UNK         0.2989 
     87 H87        24.5768  -47.2186  -55.8138 H         1 UNK         0.0559 
     88 H88        25.1266  -47.5617  -58.2227 H         1 UNK         0.0848 
     89 H89        26.2601  -46.2070  -58.1615 H         1 UNK         0.0848 
     90 H90        24.5408  -45.9343  -57.9267 H         1 UNK         0.0848 
     91 H91        27.2145  -48.0151  -56.7270 H         1 UNK         0.3144 
     92 H92        28.7696  -48.9265  -54.7033 H         1 UNK         0.0727 
     93 H93        28.7286  -51.0427  -53.4053 H         1 UNK         0.0790 
     94 H94        26.9656  -50.9956  -53.3670 H         1 UNK         0.0790 
     95 H95        27.9012  -49.7475  -52.5593 H         1 UNK         0.0790 
     96 H96        28.8605  -50.2264  -56.4456 H         1 UNK         0.3215 
     97 H97        28.4570  -52.5423  -57.4194 H         1 UNK         0.0863 
     98 H98        26.8445  -53.6496  -58.9660 H         1 UNK         0.0808 
     99 H99        25.5277  -52.6753  -58.3138 H         1 UNK         0.0808 
    100 H100       26.3559  -53.8362  -57.2898 H         1 UNK         0.0808 
    101 H101       28.7808  -51.1320  -59.0991 H         1 UNK         0.3118 
    102 H102       27.7512  -50.0721  -61.3321 H         1 UNK         0.0546 
    103 H103       26.5485  -47.5015  -60.1876 H         1 UNK         0.0828 
    104 H104       25.7301  -48.6152  -61.2721 H         1 UNK         0.0828 
    105 H105       27.1415  -47.7330  -61.8268 H         1 UNK         0.0828 
    106 H106       29.6917  -49.1743  -60.7826 H         1 UNK         0.3005 
    107 H107       31.3464  -48.6833  -59.2173 H         1 UNK         0.1257 
    108 H108       30.8365  -46.9429  -61.0111 H         1 UNK         0.0775 
    109 H109       30.6983  -45.7329  -59.7631 H         1 UNK         0.0775 
    110 H110       34.2122  -44.4027  -59.9952 H         1 UNK         0.0840 
    111 H111       32.5299  -44.1087  -60.3357 H         1 UNK         0.0840 
    112 H112       31.5223  -46.4421  -57.5255 H         1 UNK         0.2987 
    113 H113       32.4636  -46.9818  -55.4293 H         1 UNK         0.0785 
    114 H114       30.9114  -45.7607  -54.0445 H         1 UNK         0.0798 
    115 H115       29.6054  -46.8954  -54.3213 H         1 UNK         0.0798 
    116 H116       30.1444  -45.8336  -55.6105 H         1 UNK         0.0798 
    117 H117       31.0715  -48.4457  -53.3864 H         1 UNK         0.3079 
    118 H118       31.8387  -50.8654  -52.9180 H         1 UNK         0.0794 
    119 H119       33.9607  -51.8706  -53.7442 H         1 UNK         0.0786 
    120 H120       33.9200  -51.8953  -51.9886 H         1 UNK         0.0786 
    121 H121       34.9054  -50.7006  -52.8305 H         1 UNK         0.0786 
    122 H122       33.4696  -48.7128  -51.6478 H         1 UNK         0.3032 
    123 H123       31.0389  -48.2226  -49.1884 H         1 UNK         0.1094 
    124 H124       32.4831  -49.8740  -47.9907 H         1 UNK         0.0794 
    125 H125       33.9224  -49.1620  -48.7060 H         1 UNK         0.0794 
    126 H126       32.9351  -48.2289  -47.5797 H         1 UNK         0.0794 
    127 H127       33.5380  -46.9280  -49.7325 H         1 UNK         0.3016 
@<TRIPOS>BOND
     1    1    2 1    
     2    1   67 1    
     3    1   68 1    
     4    1   69 1    
     5    2    3 2    
     6    2    4 am   BACKBONE|DICT|INTERRES
     7    4    5 1    
     8    4   70 1    
     9    5    6 1    
    10    5   65 1    
    11    5   71 1    
    12    6    7 1    
    13    6   72 1    
    14    6   73 1    
    15    7    8 1    
    16    8    9 1    
    17    8   74 1    
    18    8   75 1    
    19    9   10 ar   
    20    9   14 ar   
    21   10   11 ar   
    22   10   76 1    
    23   11   12 ar   
    24   11   48 1    
    25   12   13 ar   
    26   12   77 1    
    27   13   14 ar   
    28   13   15 1    
    29   14   78 1    
    30   15   16 1    
    31   15   79 1    
    32   15   80 1    
    33   16   17 1    
    34   17   18 1    
    35   17   81 1    
    36   17   82 1    
    37   18   19 1    
    38   18   22 1    
    39   18   83 1    
    40   19   20 am   BACKBONE|DICT|INTERRES
    41   19   21 2    
    42   20   84 1    
    43   20   85 1    
    44   22   23 am   BACKBONE|DICT|INTERRES
    45   22   86 1    
    46   23   24 2    
    47   23   25 1    
    48   25   26 1    
    49   25   27 1    
    50   25   87 1    
    51   26   88 1    
    52   26   89 1    
    53   26   90 1    
    54   27   28 am   BACKBONE|DICT|INTERRES
    55   27   91 1    
    56   28   29 2    
    57   28   30 1    
    58   30   31 1    
    59   30   32 1    
    60   30   92 1    
    61   31   93 1    
    62   31   94 1    
    63   31   95 1    
    64   32   33 am   BACKBONE|DICT|INTERRES
    65   32   96 1    
    66   33   34 2    
    67   33   35 1    
    68   35   36 1    
    69   35   37 1    
    70   35   97 1    
    71   36   98 1    
    72   36   99 1    
    73   36  100 1    
    74   37   38 am   BACKBONE|DICT|INTERRES
    75   37  101 1    
    76   38   39 2    
    77   38   40 1    
    78   40   41 1    
    79   40   42 1    
    80   40  102 1    
    81   41  103 1    
    82   41  104 1    
    83   41  105 1    
    84   42   43 am   BACKBONE|DICT|INTERRES
    85   42  106 1    
    86   43   44 2    
    87   43   45 1    
    88   45   46 1    
    89   45   49 1    
    90   45  107 1    
    91   46   47 1    
    92   46  108 1    
    93   46  109 1    
    94   47   48 1    
    95   48  110 1    
    96   48  111 1    
    97   49   50 am   BACKBONE|DICT|INTERRES
    98   49  112 1    
    99   50   51 2    
   100   50   52 1    
   101   52   53 1    
   102   52   54 1    
   103   52  113 1    
   104   53  114 1    
   105   53  115 1    
   106   53  116 1    
   107   54   55 am   BACKBONE|DICT|INTERRES
   108   54  117 1    
   109   55   56 2    
   110   55   57 1    
   111   57   58 1    
   112   57   59 1    
   113   57  118 1    
   114   58  119 1    
   115   58  120 1    
   116   58  121 1    
   117   59   60 am   BACKBONE|DICT|INTERRES
   118   59  122 1    
   119   60   61 2    
   120   60   62 1    
   121   62   63 1    
   122   62   64 1    
   123   62  123 1    
   124   63  124 1    
   125   63  125 1    
   126   63  126 1    
   127   64   65 am   BACKBONE|DICT|INTERRES
   128   64  127 1    
   129   65   66 2    
@<TRIPOS>SUBSTRUCTURE
     1 UNK         1 GROUP             0       ****    0 ROOT    
