@<TRIPOS>MOLECULE
3R134
127   129    1
SMALL
USER_CHARGES


@<TRIPOS>ATOM
      1 CA         32.3195  -46.1584  -50.1469 C.3       0 UNK        -0.1968 
      2 C          33.5184  -45.5954  -50.8951 C.2       0 UNK         0.4852 
      3 O          34.0310  -44.5374  -50.5259 O.2       0 UNK        -0.5359 
      4 N          33.9656  -46.3029  -51.9351 N.am      1 UNK        -0.4300 
      5 CA         35.1391  -45.9887  -52.7484 C.3       1 UNK         0.0863 
      6 C6         34.7441  -45.4021  -54.1344 C.3       11 UNK        -0.0953 
      7 S7         33.6230  -46.4642  -55.1178 S.3       11 UNK        -0.2369 
      8 C8         33.0483  -45.2895  -56.3865 C.3       11 UNK         0.0226 
      9 C9         31.8832  -44.3767  -55.9935 C.ar      11 UNK        -0.0699 
     10 C10        31.4078  -44.2412  -54.6803 C.ar      11 UNK        -0.0804 
     11 C11        30.3530  -43.3673  -54.3860 C.ar      11 UNK        -0.0871 
     12 C12        29.7724  -42.6218  -55.4175 C.ar      11 UNK        -0.1008 
     13 C13        30.2376  -42.7425  -56.7291 C.ar      11 UNK        -0.0735 
     14 C14        31.2856  -43.6223  -57.0067 C.ar      11 UNK        -0.0945 
     15 C15        29.6512  -41.8940  -57.8479 C.3       11 UNK         0.0169 
     16 S16        28.3866  -42.7971  -58.7948 S.3       11 UNK        -0.2669 
     17 C17        26.8691  -42.4441  -57.8410 C.3       11 UNK        -0.0850 
     18 CA         26.4563  -43.5902  -56.8730 C.3       10 UNK         0.0855 
     19 C          25.2362  -43.2178  -55.9789 C.2       10 UNK         0.5543 
     20 N          24.4009  -44.1688  -55.5775 N.am      10 UNK        -0.7343 
     21 O          25.0572  -42.0578  -55.6159 O.2       10 UNK        -0.5027 
     22 N          26.3463  -44.9136  -57.5078 N.am      10 UNK        -0.4495 
     23 C          25.5752  -45.2674  -58.5437 C.2       10 UNK         0.4903 
     24 O          24.8674  -44.4833  -59.1776 O.2       10 UNK        -0.4860 
     25 CA         25.5606  -46.7689  -58.9002 C.3       9 UNK         0.0227 
     26 CB         25.2018  -47.0387  -60.3772 C.3       9 UNK        -0.1964 
     27 N          26.7858  -47.4736  -58.4987 N.am      9 UNK        -0.4231 
     28 C          28.0233  -47.3437  -59.0032 C.2       9 UNK         0.5014 
     29 O          28.3015  -46.6430  -59.9768 O.2       9 UNK        -0.5270 
     30 CA         29.1592  -48.1135  -58.2953 C.3       8 UNK         0.0284 
     31 CB         30.0694  -47.1354  -57.5351 C.3       8 UNK        -0.1977 
     32 N          28.6920  -49.1452  -57.3637 N.am      8 UNK        -0.4342 
     33 C          28.1169  -50.3022  -57.7206 C.2       8 UNK         0.5039 
     34 O          27.9818  -50.6712  -58.8874 O.2       8 UNK        -0.5547 
     35 CA         27.5575  -51.1714  -56.5828 C.3       7 UNK         0.0281 
     36 CB         28.6473  -52.0891  -56.0034 C.3       7 UNK        -0.1963 
     37 N          26.9679  -50.3565  -55.5157 N.am      7 UNK        -0.4444 
     38 C          25.7846  -49.7312  -55.6086 C.2       7 UNK         0.5104 
     39 O          25.0422  -49.8146  -56.5863 O.2       7 UNK        -0.5100 
     40 CA         25.3714  -48.8318  -54.4286 C.3       6 UNK         0.0396 
     41 CB         24.6396  -49.6538  -53.3564 C.3       6 UNK        -0.1801 
     42 N          26.5006  -48.1261  -53.8170 N.am      6 UNK        -0.4747 
     43 C          27.2386  -47.1903  -54.4335 C.2       6 UNK         0.5012 
     44 O          27.0092  -46.7870  -55.5709 O.2       6 UNK        -0.5003 
     45 CA         28.4791  -46.6665  -53.6838 C.3       5 UNK         0.0782 
     46 C46        28.1296  -45.3979  -52.8721 C.3       11 UNK        -0.0868 
     47 S47        29.5898  -44.7056  -52.0292 S.3       11 UNK        -0.2515 
     48 C48        29.8822  -43.1590  -52.9488 C.3       11 UNK         0.0199 
     49 N          29.1140  -47.7124  -52.8684 N.am      5 UNK        -0.4607 
     50 C          29.6431  -48.8329  -53.3733 C.2       4 UNK         0.5031 
     51 O          29.6076  -49.1212  -54.5724 O.2       4 UNK        -0.5119 
     52 CA         30.2477  -49.8313  -52.3739 C.3       4 UNK         0.0263 
     53 CB         29.1992  -50.8818  -51.9730 C.3       4 UNK        -0.1967 
     54 N          31.4033  -50.5051  -52.9666 N.am      4 UNK        -0.4237 
     55 C          32.5706  -49.8947  -53.1993 C.2       3 UNK         0.4908 
     56 O          32.8463  -48.7722  -52.7630 O.2       3 UNK        -0.5102 
     57 CA         33.5802  -50.6535  -54.0762 C.3       3 UNK         0.0241 
     58 CB         32.9833  -50.9978  -55.4549 C.3       3 UNK        -0.1971 
     59 N          34.7439  -49.7975  -54.2710 N.am      3 UNK        -0.4139 
     60 C          36.0305  -50.1411  -54.1496 C.2       2 UNK         0.5016 
     61 O          36.4224  -51.2953  -53.9725 O.2       2 UNK        -0.5319 
     62 CA         37.0586  -48.9922  -54.2299 C.3       2 UNK         0.0286 
     63 CB         37.7453  -48.9783  -55.6052 C.3       2 UNK        -0.1963 
     64 N          36.4537  -47.6767  -53.9841 N.am      2 UNK        -0.4790 
     65 C          36.0222  -47.2535  -52.7872 C.2       1 UNK         0.5024 
     66 O          36.2722  -47.8490  -51.7365 O.2       1 UNK        -0.4888 
     67 H67        31.7743  -46.8832  -50.7518 H         1 UNK         0.0892 
     68 H68        32.6458  -46.6506  -49.2314 H         1 UNK         0.0892 
     69 H69        31.6314  -45.3580  -49.8770 H         1 UNK         0.0892 
     70 H70        33.5160  -47.1872  -52.1753 H         1 UNK         0.3107 
     71 H71        35.7468  -45.2384  -52.2385 H         1 UNK         0.0773 
     72 H72        35.6312  -45.1734  -54.7275 H         1 UNK         0.0680 
     73 H73        34.2524  -44.4410  -53.9780 H         1 UNK         0.0680 
     74 H74        32.7552  -45.8741  -57.2590 H         1 UNK         0.0650 
     75 H75        33.8901  -44.6731  -56.7046 H         1 UNK         0.0650 
     76 H76        31.8597  -44.7999  -53.8736 H         1 UNK         0.1397 
     77 H77        28.9721  -41.9280  -55.1986 H         1 UNK         0.1363 
     78 H78        31.6473  -43.7103  -58.0223 H         1 UNK         0.1355 
     79 H79        29.2444  -40.9608  -57.4560 H         1 UNK         0.0707 
     80 H80        30.4489  -41.6026  -58.5330 H         1 UNK         0.0707 
     81 H81        27.0082  -41.5133  -57.2892 H         1 UNK         0.1034 
     82 H82        26.0648  -42.2401  -58.5489 H         1 UNK         0.1034 
     83 H83        27.2731  -43.7064  -56.1613 H         1 UNK         0.0482 
     84 H84        24.5554  -45.1263  -55.8489 H         1 UNK         0.3460 
     85 H85        23.6175  -43.9257  -54.9921 H         1 UNK         0.3460 
     86 H86        26.8111  -45.6599  -56.9968 H         1 UNK         0.2989 
     87 H87        24.7670  -47.2060  -58.2925 H         1 UNK         0.0559 
     88 H88        25.8965  -46.5494  -61.0602 H         1 UNK         0.0848 
     89 H89        24.2043  -46.6647  -60.6107 H         1 UNK         0.0848 
     90 H90        25.2064  -48.1059  -60.5987 H         1 UNK         0.0848 
     91 H91        26.6936  -48.0538  -57.6757 H         1 UNK         0.3144 
     92 H92        29.7541  -48.6034  -59.0689 H         1 UNK         0.0727 
     93 H93        29.5153  -46.5610  -56.7931 H         1 UNK         0.0790 
     94 H94        30.5220  -46.4179  -58.2204 H         1 UNK         0.0790 
     95 H95        30.8799  -47.6545  -57.0224 H         1 UNK         0.0790 
     96 H96        28.8409  -48.9708  -56.3730 H         1 UNK         0.3215 
     97 H97        26.7732  -51.8048  -57.0036 H         1 UNK         0.0863 
     98 H98        28.2500  -52.7299  -55.2162 H         1 UNK         0.0808 
     99 H99        29.4821  -51.5241  -55.5889 H         1 UNK         0.0808 
    100 H100       29.0534  -52.7420  -56.7771 H         1 UNK         0.0808 
    101 H101       27.5477  -50.1771  -54.7083 H         1 UNK         0.3118 
    102 H102       24.6778  -48.0809  -54.8131 H         1 UNK         0.0546 
    103 H103       25.2874  -50.4101  -52.9113 H         1 UNK         0.0828 
    104 H104       23.7796  -50.1723  -53.7829 H         1 UNK         0.0828 
    105 H105       24.2653  -49.0171  -52.5546 H         1 UNK         0.0828 
    106 H106       26.7585  -48.3976  -52.8792 H         1 UNK         0.3005 
    107 H107       29.2049  -46.3778  -54.4474 H         1 UNK         0.1257 
    108 H108       27.3759  -45.6201  -52.1143 H         1 UNK         0.0775 
    109 H109       27.6937  -44.6351  -53.5209 H         1 UNK         0.0775 
    110 H110       28.9728  -42.5568  -52.9182 H         1 UNK         0.0840 
    111 H111       30.6444  -42.5848  -52.4205 H         1 UNK         0.0840 
    112 H112       29.1753  -47.5299  -51.8772 H         1 UNK         0.2987 
    113 H113       30.5721  -49.2943  -51.4798 H         1 UNK         0.0785 
    114 H114       28.3313  -50.4128  -51.5075 H         1 UNK         0.0798 
    115 H115       29.6062  -51.5906  -51.2515 H         1 UNK         0.0798 
    116 H116       28.8418  -51.4491  -52.8334 H         1 UNK         0.0798 
    117 H117       31.2383  -51.4141  -53.3723 H         1 UNK         0.3079 
    118 H118       33.8653  -51.5689  -53.5536 H         1 UNK         0.0794 
    119 H119       32.1625  -51.7103  -55.3701 H         1 UNK         0.0786 
    120 H120       33.7310  -51.4495  -56.1071 H         1 UNK         0.0786 
    121 H121       32.5951  -50.1101  -55.9575 H         1 UNK         0.0786 
    122 H122       34.5223  -48.8127  -54.3419 H         1 UNK         0.3032 
    123 H123       37.8167  -49.1777  -53.4653 H         1 UNK         0.1094 
    124 H124       38.5164  -48.2093  -55.6563 H         1 UNK         0.0794 
    125 H125       38.2298  -49.9344  -55.8086 H         1 UNK         0.0794 
    126 H126       37.0332  -48.7961  -56.4112 H         1 UNK         0.0794 
    127 H127       36.2039  -47.1332  -54.7992 H         1 UNK         0.3016 
@<TRIPOS>BOND
     1    1    2 1    
     2    1   67 1    
     3    1   68 1    
     4    1   69 1    
     5    2    3 2    
     6    2    4 am   BACKBONE|DICT|INTERRES
     7    4    5 1    
     8    4   70 1    
     9    5    6 1    
    10    5   65 1    
    11    5   71 1    
    12    6    7 1    
    13    6   72 1    
    14    6   73 1    
    15    7    8 1    
    16    8    9 1    
    17    8   74 1    
    18    8   75 1    
    19    9   10 ar   
    20    9   14 ar   
    21   10   11 ar   
    22   10   76 1    
    23   11   12 ar   
    24   11   48 1    
    25   12   13 ar   
    26   12   77 1    
    27   13   14 ar   
    28   13   15 1    
    29   14   78 1    
    30   15   16 1    
    31   15   79 1    
    32   15   80 1    
    33   16   17 1    
    34   17   18 1    
    35   17   81 1    
    36   17   82 1    
    37   18   19 1    
    38   18   22 1    
    39   18   83 1    
    40   19   20 am   BACKBONE|DICT|INTERRES
    41   19   21 2    
    42   20   84 1    
    43   20   85 1    
    44   22   23 am   BACKBONE|DICT|INTERRES
    45   22   86 1    
    46   23   24 2    
    47   23   25 1    
    48   25   26 1    
    49   25   27 1    
    50   25   87 1    
    51   26   88 1    
    52   26   89 1    
    53   26   90 1    
    54   27   28 am   BACKBONE|DICT|INTERRES
    55   27   91 1    
    56   28   29 2    
    57   28   30 1    
    58   30   31 1    
    59   30   32 1    
    60   30   92 1    
    61   31   93 1    
    62   31   94 1    
    63   31   95 1    
    64   32   33 am   BACKBONE|DICT|INTERRES
    65   32   96 1    
    66   33   34 2    
    67   33   35 1    
    68   35   36 1    
    69   35   37 1    
    70   35   97 1    
    71   36   98 1    
    72   36   99 1    
    73   36  100 1    
    74   37   38 am   BACKBONE|DICT|INTERRES
    75   37  101 1    
    76   38   39 2    
    77   38   40 1    
    78   40   41 1    
    79   40   42 1    
    80   40  102 1    
    81   41  103 1    
    82   41  104 1    
    83   41  105 1    
    84   42   43 am   BACKBONE|DICT|INTERRES
    85   42  106 1    
    86   43   44 2    
    87   43   45 1    
    88   45   46 1    
    89   45   49 1    
    90   45  107 1    
    91   46   47 1    
    92   46  108 1    
    93   46  109 1    
    94   47   48 1    
    95   48  110 1    
    96   48  111 1    
    97   49   50 am   BACKBONE|DICT|INTERRES
    98   49  112 1    
    99   50   51 2    
   100   50   52 1    
   101   52   53 1    
   102   52   54 1    
   103   52  113 1    
   104   53  114 1    
   105   53  115 1    
   106   53  116 1    
   107   54   55 am   BACKBONE|DICT|INTERRES
   108   54  117 1    
   109   55   56 2    
   110   55   57 1    
   111   57   58 1    
   112   57   59 1    
   113   57  118 1    
   114   58  119 1    
   115   58  120 1    
   116   58  121 1    
   117   59   60 am   BACKBONE|DICT|INTERRES
   118   59  122 1    
   119   60   61 2    
   120   60   62 1    
   121   62   63 1    
   122   62   64 1    
   123   62  123 1    
   124   63  124 1    
   125   63  125 1    
   126   63  126 1    
   127   64   65 am   BACKBONE|DICT|INTERRES
   128   64  127 1    
   129   65   66 2    
@<TRIPOS>SUBSTRUCTURE
     1 UNK         1 GROUP             0       ****    0 ROOT    
