@<TRIPOS>MOLECULE
3R134
127   129    1
SMALL
USER_CHARGES


@<TRIPOS>ATOM
      1 CA         37.8392  -43.8037  -57.2679 C.3       0 UNK        -0.1968 
      2 C          36.5129  -44.5236  -57.0709 C.2       0 UNK         0.4852 
      3 O          35.7825  -44.7340  -58.0408 O.2       0 UNK        -0.5359 
      4 N          36.1940  -44.8947  -55.8239 N.am      1 UNK        -0.4300 
      5 CA         34.9950  -45.6545  -55.4591 C.3       1 UNK         0.0863 
      6 C6         34.6948  -45.5302  -53.9411 C.3       11 UNK        -0.0953 
      7 S7         32.9309  -45.8009  -53.5495 S.3       11 UNK        -0.2369 
      8 C8         32.4103  -44.0971  -53.1857 C.3       11 UNK         0.0226 
      9 C9         30.9080  -43.9977  -52.9730 C.ar      11 UNK        -0.0699 
     10 C10        30.3510  -44.3012  -51.7273 C.ar      11 UNK        -0.0804 
     11 C11        28.9736  -44.1831  -51.5221 C.ar      11 UNK        -0.0871 
     12 C12        28.1571  -43.7515  -52.5697 C.ar      11 UNK        -0.1008 
     13 C13        28.6953  -43.4429  -53.8213 C.ar      11 UNK        -0.0735 
     14 C14        30.0773  -43.5756  -54.0159 C.ar      11 UNK        -0.0945 
     15 C15        27.7312  -42.9853  -54.9153 C.3       11 UNK         0.0169 
     16 S16        28.4968  -42.2141  -56.3833 S.3       11 UNK        -0.2669 
     17 C17        27.0035  -41.6567  -57.2818 C.3       11 UNK        -0.0850 
     18 CA         26.5730  -42.5957  -58.4396 C.3       10 UNK         0.0855 
     19 C          27.4706  -42.4338  -59.7027 C.2       10 UNK         0.5543 
     20 N          28.1348  -43.4715  -60.1974 N.am      10 UNK        -0.7343 
     21 O          27.5502  -41.3405  -60.2577 O.2       10 UNK        -0.5027 
     22 N          26.4062  -43.9779  -57.9699 N.am      10 UNK        -0.4495 
     23 C          25.6090  -44.8968  -58.5239 C.2       10 UNK         0.4903 
     24 O          24.8237  -44.6525  -59.4414 O.2       10 UNK        -0.4860 
     25 CA         25.7064  -46.3282  -57.9522 C.3       9 UNK         0.0227 
     26 CB         25.2727  -47.3946  -58.9795 C.3       9 UNK        -0.1964 
     27 N          27.0200  -46.6806  -57.3900 N.am      9 UNK        -0.4231 
     28 C          28.2090  -46.6350  -58.0144 C.2       9 UNK         0.5014 
     29 O          28.3848  -46.1588  -59.1364 O.2       9 UNK        -0.5270 
     30 CA         29.4029  -47.2470  -57.2652 C.3       8 UNK         0.0284 
     31 CB         29.9009  -46.3104  -56.1531 C.3       8 UNK        -0.1977 
     32 N          29.0853  -48.5610  -56.7041 N.am      8 UNK        -0.4342 
     33 C          28.8032  -49.6546  -57.4296 C.2       8 UNK         0.5039 
     34 O          28.8470  -49.6985  -58.6594 O.2       8 UNK        -0.5547 
     35 CA         28.3881  -50.9120  -56.6515 C.3       7 UNK         0.0281 
     36 CB         29.6207  -51.6980  -56.1760 C.3       7 UNK        -0.1963 
     37 N          27.5315  -50.5752  -55.5127 N.am      7 UNK        -0.4444 
     38 C          26.2272  -50.2819  -55.6205 C.2       7 UNK         0.5104 
     39 O          25.5907  -50.3657  -56.6705 O.2       7 UNK        -0.5100 
     40 CA         25.5036  -49.8104  -54.3468 C.3       6 UNK         0.0396 
     41 CB         24.7989  -50.9925  -53.6628 C.3       6 UNK        -0.1801 
     42 N          26.3895  -49.1530  -53.3830 N.am      6 UNK        -0.4747 
     43 C          26.9501  -47.9463  -53.5542 C.2       6 UNK         0.5012 
     44 O          26.7778  -47.2438  -54.5517 O.2       6 UNK        -0.5003 
     45 CA         27.9112  -47.4844  -52.4412 C.3       5 UNK         0.0782 
     46 C46        27.1307  -46.8359  -51.2692 C.3       11 UNK        -0.0868 
     47 S47        28.2292  -46.3112  -49.9046 S.3       11 UNK        -0.2515 
     48 C48        28.3614  -44.5157  -50.1698 C.3       11 UNK         0.0199 
     49 N          28.7805  -48.5737  -51.9801 N.am      5 UNK        -0.4607 
     50 C          29.6929  -49.1973  -52.7301 C.2       4 UNK         0.5031 
     51 O          29.8507  -48.9961  -53.9371 O.2       4 UNK        -0.5119 
     52 CA         30.5609  -50.2352  -52.0190 C.3       4 UNK         0.0263 
     53 CB         30.0289  -51.6619  -52.2423 C.3       4 UNK        -0.1967 
     54 N          31.9146  -50.0967  -52.5374 N.am      4 UNK        -0.4237 
     55 C          33.0363  -50.4697  -51.9120 C.2       3 UNK         0.4908 
     56 O          33.0442  -51.0835  -50.8436 O.2       3 UNK        -0.5102 
     57 CA         34.3769  -50.0428  -52.5427 C.3       3 UNK         0.0241 
     58 CB         35.4453  -51.1557  -52.4772 C.3       3 UNK        -0.1971 
     59 N          34.2557  -49.4762  -53.8938 N.am      3 UNK        -0.4139 
     60 C          33.9866  -50.1085  -55.0470 C.2       2 UNK         0.5016 
     61 O          33.8080  -51.3230  -55.1380 O.2       2 UNK        -0.5319 
     62 CA         33.8577  -49.2364  -56.3152 C.3       2 UNK         0.0286 
     63 CB         32.5102  -49.4886  -57.0085 C.3       2 UNK        -0.1963 
     64 N          33.9757  -47.7974  -56.0510 N.am      2 UNK        -0.4790 
     65 C          35.1257  -47.1337  -55.8817 C.2       1 UNK         0.5024 
     66 O          36.2366  -47.6608  -55.9769 O.2       1 UNK        -0.4888 
     67 H67        38.4773  -44.3723  -57.9440 H         1 UNK         0.0892 
     68 H68        37.6710  -42.8196  -57.7044 H         1 UNK         0.0892 
     69 H69        38.3751  -43.6704  -56.3283 H         1 UNK         0.0892 
     70 H70        36.8509  -44.7257  -55.0756 H         1 UNK         0.3107 
     71 H71        34.1616  -45.2170  -56.0143 H         1 UNK         0.0773 
     72 H72        34.9706  -44.5358  -53.5858 H         1 UNK         0.0680 
     73 H73        35.3016  -46.2219  -53.3529 H         1 UNK         0.0680 
     74 H74        32.7172  -43.4449  -54.0051 H         1 UNK         0.0650 
     75 H75        32.9334  -43.7426  -52.2962 H         1 UNK         0.0650 
     76 H76        30.9889  -44.6330  -50.9193 H         1 UNK         0.1397 
     77 H77        27.0912  -43.6565  -52.4111 H         1 UNK         0.1363 
     78 H78        30.5199  -43.3496  -54.9751 H         1 UNK         0.1355 
     79 H79        27.1388  -43.8452  -55.2297 H         1 UNK         0.0707 
     80 H80        27.0333  -42.2673  -54.4813 H         1 UNK         0.0707 
     81 H81        26.1765  -41.5550  -56.5778 H         1 UNK         0.1034 
     82 H82        27.1805  -40.6446  -57.6510 H         1 UNK         0.1034 
     83 H83        25.5879  -42.2496  -58.7587 H         1 UNK         0.0482 
     84 H84        28.0921  -44.3863  -59.7562 H         1 UNK         0.3460 
     85 H85        28.7022  -43.3429  -61.0194 H         1 UNK         0.3460 
     86 H86        27.0507  -44.2728  -57.2523 H         1 UNK         0.2989 
     87 H87        25.0047  -46.3681  -57.1180 H         1 UNK         0.0559 
     88 H88        25.9047  -47.3763  -59.8682 H         1 UNK         0.0848 
     89 H89        24.2444  -47.2350  -59.3059 H         1 UNK         0.0848 
     90 H90        25.3230  -48.3974  -58.5558 H         1 UNK         0.0848 
     91 H91        27.0006  -47.0281  -56.4329 H         1 UNK         0.3144 
     92 H92        30.2139  -47.3805  -57.9841 H         1 UNK         0.0727 
     93 H93        30.7746  -46.7214  -55.6483 H         1 UNK         0.0790 
     94 H94        30.1867  -45.3402  -56.5614 H         1 UNK         0.0790 
     95 H95        29.1371  -46.1329  -55.3958 H         1 UNK         0.0790 
     96 H96        29.1092  -48.6436  -55.6914 H         1 UNK         0.3215 
     97 H97        27.8259  -51.5550  -57.3327 H         1 UNK         0.0863 
     98 H98        29.3326  -52.6058  -55.6461 H         1 UNK         0.0808 
     99 H99        30.2551  -51.1074  -55.5157 H         1 UNK         0.0808 
    100 H100       30.2350  -52.0018  -57.0245 H         1 UNK         0.0808 
    101 H101       27.9815  -50.4517  -54.6178 H         1 UNK         0.3118 
    102 H102       24.7415  -49.0895  -54.6508 H         1 UNK         0.0546 
    103 H103       25.5097  -51.7453  -53.3198 H         1 UNK         0.0828 
    104 H104       24.1095  -51.4855  -54.3499 H         1 UNK         0.0828 
    105 H105       24.2148  -50.6638  -52.8030 H         1 UNK         0.0828 
    106 H106       26.5982  -49.6603  -52.5348 H         1 UNK         0.3005 
    107 H107       28.5590  -46.7229  -52.8825 H         1 UNK         0.1257 
    108 H108       26.4086  -47.5416  -50.8540 H         1 UNK         0.0775 
    109 H109       26.5467  -45.9823  -51.6171 H         1 UNK         0.0775 
    110 H110       27.3742  -44.0623  -50.0669 H         1 UNK         0.0840 
    111 H111       28.9758  -44.0856  -49.3774 H         1 UNK         0.0840 
    112 H112       28.7246  -48.7874  -50.9946 H         1 UNK         0.2987 
    113 H113       30.5676  -50.0149  -50.9492 H         1 UNK         0.0785 
    114 H114       28.9944  -51.7532  -51.9091 H         1 UNK         0.0798 
    115 H115       30.6131  -52.3926  -51.6829 H         1 UNK         0.0798 
    116 H116       30.0634  -51.9474  -53.2927 H         1 UNK         0.0798 
    117 H117       31.9759  -49.5783  -53.4040 H         1 UNK         0.3079 
    118 H118       34.7359  -49.2214  -51.9207 H         1 UNK         0.0794 
    119 H119       36.3854  -50.8312  -52.9232 H         1 UNK         0.0786 
    120 H120       35.1229  -52.0613  -52.9914 H         1 UNK         0.0786 
    121 H121       35.6575  -51.4325  -51.4438 H         1 UNK         0.0786 
    122 H122       34.3592  -48.4730  -53.9473 H         1 UNK         0.3032 
    123 H123       34.6573  -49.5389  -56.9953 H         1 UNK         0.1094 
    124 H124       31.6804  -49.2490  -56.3451 H         1 UNK         0.0794 
    125 H125       32.4046  -48.8901  -57.9135 H         1 UNK         0.0794 
    126 H126       32.4047  -50.5342  -57.3006 H         1 UNK         0.0794 
    127 H127       33.1093  -47.2927  -55.9248 H         1 UNK         0.3016 
@<TRIPOS>BOND
     1    1    2 1    
     2    1   67 1    
     3    1   68 1    
     4    1   69 1    
     5    2    3 2    
     6    2    4 am   BACKBONE|DICT|INTERRES
     7    4    5 1    
     8    4   70 1    
     9    5    6 1    
    10    5   65 1    
    11    5   71 1    
    12    6    7 1    
    13    6   72 1    
    14    6   73 1    
    15    7    8 1    
    16    8    9 1    
    17    8   74 1    
    18    8   75 1    
    19    9   10 ar   
    20    9   14 ar   
    21   10   11 ar   
    22   10   76 1    
    23   11   12 ar   
    24   11   48 1    
    25   12   13 ar   
    26   12   77 1    
    27   13   14 ar   
    28   13   15 1    
    29   14   78 1    
    30   15   16 1    
    31   15   79 1    
    32   15   80 1    
    33   16   17 1    
    34   17   18 1    
    35   17   81 1    
    36   17   82 1    
    37   18   19 1    
    38   18   22 1    
    39   18   83 1    
    40   19   20 am   BACKBONE|DICT|INTERRES
    41   19   21 2    
    42   20   84 1    
    43   20   85 1    
    44   22   23 am   BACKBONE|DICT|INTERRES
    45   22   86 1    
    46   23   24 2    
    47   23   25 1    
    48   25   26 1    
    49   25   27 1    
    50   25   87 1    
    51   26   88 1    
    52   26   89 1    
    53   26   90 1    
    54   27   28 am   BACKBONE|DICT|INTERRES
    55   27   91 1    
    56   28   29 2    
    57   28   30 1    
    58   30   31 1    
    59   30   32 1    
    60   30   92 1    
    61   31   93 1    
    62   31   94 1    
    63   31   95 1    
    64   32   33 am   BACKBONE|DICT|INTERRES
    65   32   96 1    
    66   33   34 2    
    67   33   35 1    
    68   35   36 1    
    69   35   37 1    
    70   35   97 1    
    71   36   98 1    
    72   36   99 1    
    73   36  100 1    
    74   37   38 am   BACKBONE|DICT|INTERRES
    75   37  101 1    
    76   38   39 2    
    77   38   40 1    
    78   40   41 1    
    79   40   42 1    
    80   40  102 1    
    81   41  103 1    
    82   41  104 1    
    83   41  105 1    
    84   42   43 am   BACKBONE|DICT|INTERRES
    85   42  106 1    
    86   43   44 2    
    87   43   45 1    
    88   45   46 1    
    89   45   49 1    
    90   45  107 1    
    91   46   47 1    
    92   46  108 1    
    93   46  109 1    
    94   47   48 1    
    95   48  110 1    
    96   48  111 1    
    97   49   50 am   BACKBONE|DICT|INTERRES
    98   49  112 1    
    99   50   51 2    
   100   50   52 1    
   101   52   53 1    
   102   52   54 1    
   103   52  113 1    
   104   53  114 1    
   105   53  115 1    
   106   53  116 1    
   107   54   55 am   BACKBONE|DICT|INTERRES
   108   54  117 1    
   109   55   56 2    
   110   55   57 1    
   111   57   58 1    
   112   57   59 1    
   113   57  118 1    
   114   58  119 1    
   115   58  120 1    
   116   58  121 1    
   117   59   60 am   BACKBONE|DICT|INTERRES
   118   59  122 1    
   119   60   61 2    
   120   60   62 1    
   121   62   63 1    
   122   62   64 1    
   123   62  123 1    
   124   63  124 1    
   125   63  125 1    
   126   63  126 1    
   127   64   65 am   BACKBONE|DICT|INTERRES
   128   64  127 1    
   129   65   66 2    
@<TRIPOS>SUBSTRUCTURE
     1 UNK         1 GROUP             0       ****    0 ROOT    
