@<TRIPOS>MOLECULE
3R134
127   129    1
SMALL
USER_CHARGES


@<TRIPOS>ATOM
      1 CA         31.0873  -42.8313  -59.4947 C.3       0 UNK        -0.1968 
      2 C          31.2229  -43.9522  -58.4762 C.2       0 UNK         0.4852 
      3 O          30.3038  -44.7587  -58.3318 O.2       0 UNK        -0.5359 
      4 N          32.3585  -43.9975  -57.7697 N.am      1 UNK        -0.4300 
      5 CA         32.6882  -44.9896  -56.7408 C.3       1 UNK         0.0863 
      6 C6         33.9495  -44.5801  -55.9361 C.3       11 UNK        -0.0953 
      7 S7         33.8545  -42.8996  -55.2325 S.3       11 UNK        -0.2369 
      8 C8         33.6796  -43.2357  -53.4457 C.3       11 UNK         0.0226 
      9 C9         32.2771  -43.6218  -52.9689 C.ar      11 UNK        -0.0699 
     10 C10        32.1500  -44.2482  -51.7253 C.ar      11 UNK        -0.0804 
     11 C11        30.8916  -44.5433  -51.1953 C.ar      11 UNK        -0.0871 
     12 C12        29.7478  -44.2283  -51.9324 C.ar      11 UNK        -0.1008 
     13 C13        29.8457  -43.6015  -53.1785 C.ar      11 UNK        -0.0735 
     14 C14        31.1172  -43.3005  -53.6881 C.ar      11 UNK        -0.0945 
     15 C15        28.5437  -43.2303  -53.8926 C.3       11 UNK         0.0169 
     16 S16        28.7093  -42.5360  -55.5742 S.3       11 UNK        -0.2669 
     17 C17        26.9521  -42.1983  -55.9437 C.3       11 UNK        -0.0850 
     18 CA         26.5927  -42.2689  -57.4510 C.3       10 UNK         0.0855 
     19 C          27.0581  -41.0113  -58.2441 C.2       10 UNK         0.5543 
     20 N          27.7549  -41.1500  -59.3654 N.am      10 UNK        -0.7343 
     21 O          26.7603  -39.8875  -57.8463 O.2       10 UNK        -0.5027 
     22 N          26.9899  -43.5579  -58.0387 N.am      10 UNK        -0.4495 
     23 C          26.3699  -44.1681  -59.0562 C.2       10 UNK         0.4903 
     24 O          25.3563  -43.7308  -59.6015 O.2       10 UNK        -0.4860 
     25 CA         26.9831  -45.4817  -59.5688 C.3       9 UNK         0.0227 
     26 CB         27.7368  -45.2403  -60.8870 C.3       9 UNK        -0.1964 
     27 N          27.8985  -46.0959  -58.6052 N.am      9 UNK        -0.4231 
     28 C          27.5288  -46.8886  -57.5941 C.2       9 UNK         0.5014 
     29 O          26.3571  -47.1803  -57.3391 O.2       9 UNK        -0.5270 
     30 CA         28.6705  -47.4236  -56.7119 C.3       8 UNK         0.0284 
     31 CB         29.0031  -46.4390  -55.5811 C.3       8 UNK        -0.1977 
     32 N          28.3508  -48.7266  -56.1272 N.am      8 UNK        -0.4342 
     33 C          28.2193  -49.8692  -56.8171 C.2       8 UNK         0.5039 
     34 O          28.3758  -49.9488  -58.0368 O.2       8 UNK        -0.5547 
     35 CA         27.8887  -51.1503  -56.0288 C.3       7 UNK         0.0281 
     36 CB         29.0302  -52.1761  -56.1538 C.3       7 UNK        -0.1963 
     37 N          27.6466  -50.8899  -54.6077 N.am      7 UNK        -0.4444 
     38 C          26.4359  -50.7433  -54.0508 C.2       7 UNK         0.5104 
     39 O          25.3802  -50.8337  -54.6779 O.2       7 UNK        -0.5100 
     40 CA         26.3798  -50.4538  -52.5372 C.3       6 UNK         0.0396 
     41 CB         26.0427  -51.7375  -51.7619 C.3       6 UNK        -0.1801 
     42 N          27.6177  -49.8836  -51.9989 N.am      6 UNK        -0.4747 
     43 C          28.0724  -48.6493  -52.2618 C.2       6 UNK         0.5012 
     44 O          27.4575  -47.8325  -52.9450 O.2       6 UNK        -0.5003 
     45 CA         29.4700  -48.2866  -51.7164 C.3       5 UNK         0.0782 
     46 C46        29.3492  -47.5141  -50.3826 C.3       11 UNK        -0.0868 
     47 S47        30.9717  -46.9394  -49.7749 S.3       11 UNK        -0.2515 
     48 C48        30.7721  -45.1312  -49.7953 C.3       11 UNK         0.0199 
     49 N          30.3539  -49.4560  -51.5932 N.am      5 UNK        -0.4607 
     50 C          30.7627  -50.2136  -52.6161 C.2       4 UNK         0.5031 
     51 O          30.3857  -50.0547  -53.7792 O.2       4 UNK        -0.5119 
     52 CA         31.7055  -51.3720  -52.2875 C.3       4 UNK         0.0263 
     53 CB         30.9190  -52.6830  -52.1214 C.3       4 UNK        -0.1967 
     54 N          32.6336  -51.4940  -53.4030 N.am      4 UNK        -0.4237 
     55 C          33.9542  -51.6794  -53.3054 C.2       3 UNK         0.4908 
     56 O          34.5342  -51.9384  -52.2500 O.2       3 UNK        -0.5102 
     57 CA         34.7802  -51.5391  -54.6003 C.3       3 UNK         0.0241 
     58 CB         35.1276  -52.9265  -55.1654 C.3       3 UNK        -0.1971 
     59 N          34.1370  -50.7394  -55.6525 N.am      3 UNK        -0.4139 
     60 C          33.8185  -49.4405  -55.5532 C.2       2 UNK         0.5016 
     61 O          34.0397  -48.7538  -54.5514 O.2       2 UNK        -0.5319 
     62 CA         33.1240  -48.8116  -56.7701 C.3       2 UNK         0.0286 
     63 CB         31.8189  -49.5429  -57.1304 C.3       2 UNK        -0.1963 
     64 N          32.8271  -47.4132  -56.4690 N.am      2 UNK        -0.4790 
     65 C          32.8870  -46.4005  -57.3379 C.2       1 UNK         0.5024 
     66 O          33.1432  -46.5460  -58.5364 O.2       1 UNK        -0.4888 
     67 H67        30.3981  -42.0747  -59.1226 H         1 UNK         0.0892 
     68 H68        32.0438  -42.3497  -59.6967 H         1 UNK         0.0892 
     69 H69        30.7010  -43.2193  -60.4365 H         1 UNK         0.0892 
     70 H70        33.0757  -43.3086  -57.9427 H         1 UNK         0.3107 
     71 H71        31.8405  -45.0380  -56.0540 H         1 UNK         0.0773 
     72 H72        34.1367  -45.2917  -55.1298 H         1 UNK         0.0680 
     73 H73        34.8344  -44.6137  -56.5750 H         1 UNK         0.0680 
     74 H74        33.9732  -42.3323  -52.9097 H         1 UNK         0.0650 
     75 H75        34.3988  -44.0045  -53.1589 H         1 UNK         0.0650 
     76 H76        33.0357  -44.4772  -51.1478 H         1 UNK         0.1397 
     77 H77        28.7709  -44.4418  -51.5200 H         1 UNK         0.1363 
     78 H78        31.2073  -42.7883  -54.6336 H         1 UNK         0.1355 
     79 H79        27.9067  -44.1140  -53.9433 H         1 UNK         0.0707 
     80 H80        28.0139  -42.5028  -53.2759 H         1 UNK         0.0707 
     81 H81        26.3384  -42.9258  -55.4102 H         1 UNK         0.1034 
     82 H82        26.6818  -41.2291  -55.5199 H         1 UNK         0.1034 
     83 H83        25.5030  -42.2223  -57.4972 H         1 UNK         0.0482 
     84 H84        28.0382  -40.3287  -59.8759 H         1 UNK         0.3460 
     85 H85        27.9766  -42.0675  -59.7134 H         1 UNK         0.3460 
     86 H86        27.8392  -43.9634  -57.6705 H         1 UNK         0.2989 
     87 H87        26.1620  -46.1732  -59.7694 H         1 UNK         0.0559 
     88 H88        27.0809  -44.7995  -61.6390 H         1 UNK         0.0848 
     89 H89        28.1195  -46.1736  -61.3004 H         1 UNK         0.0848 
     90 H90        28.5811  -44.5637  -60.7522 H         1 UNK         0.0848 
     91 H91        28.8755  -45.8029  -58.6567 H         1 UNK         0.3144 
     92 H92        29.5593  -47.5439  -57.3343 H         1 UNK         0.0727 
     93 H93        28.1368  -46.2562  -54.9459 H         1 UNK         0.0790 
     94 H94        29.3211  -45.4759  -55.9788 H         1 UNK         0.0790 
     95 H95        29.8127  -46.8099  -54.9523 H         1 UNK         0.0790 
     96 H96        28.1599  -48.7408  -55.1356 H         1 UNK         0.3215 
     97 H97        26.9964  -51.5848  -56.4847 H         1 UNK         0.0863 
     98 H98        28.7915  -53.1009  -55.6285 H         1 UNK         0.0808 
     99 H99        29.9673  -51.7936  -55.7496 H         1 UNK         0.0808 
    100 H100       29.2101  -52.4355  -57.1979 H         1 UNK         0.0808 
    101 H101       28.4745  -50.7515  -54.0380 H         1 UNK         0.3118 
    102 H102       25.5752  -49.7341  -52.3712 H         1 UNK         0.0546 
    103 H103       26.8181  -52.4959  -51.8780 H         1 UNK         0.0828 
    104 H104       25.1069  -52.1728  -52.1158 H         1 UNK         0.0828 
    105 H105       25.9216  -51.5392  -50.6968 H         1 UNK         0.0828 
    106 H106       28.1878  -50.4887  -51.4255 H         1 UNK         0.3005 
    107 H107       29.9224  -47.6171  -52.4524 H         1 UNK         0.1257 
    108 H108       28.9037  -48.1464  -49.6121 H         1 UNK         0.0775 
    109 H109       28.6793  -46.6598  -50.4934 H         1 UNK         0.0775 
    110 H110       29.8183  -44.8592  -49.3404 H         1 UNK         0.0840 
    111 H111       31.5391  -44.6928  -49.1549 H         1 UNK         0.0840 
    112 H112       30.7101  -49.6421  -50.6666 H         1 UNK         0.2987 
    113 H113       32.2443  -51.1431  -51.3653 H         1 UNK         0.0785 
    114 H114       30.2152  -52.6161  -51.2909 H         1 UNK         0.0798 
    115 H115       31.5872  -53.5189  -51.9134 H         1 UNK         0.0798 
    116 H116       30.3474  -52.9283  -53.0178 H         1 UNK         0.0798 
    117 H117       32.2438  -51.2230  -54.2960 H         1 UNK         0.3079 
    118 H118       35.7116  -51.0364  -54.3312 H         1 UNK         0.0794 
    119 H119       35.7942  -52.8510  -56.0248 H         1 UNK         0.0786 
    120 H120       34.2350  -53.4706  -55.4770 H         1 UNK         0.0786 
    121 H121       35.6362  -53.5369  -54.4176 H         1 UNK         0.0786 
    122 H122       33.9277  -51.2237  -56.5138 H         1 UNK         0.3032 
    123 H123       33.8205  -48.8715  -57.6098 H         1 UNK         0.1094 
    124 H124       31.1190  -49.5314  -56.2956 H         1 UNK         0.0794 
    125 H125       31.3275  -49.0770  -57.9846 H         1 UNK         0.0794 
    126 H126       31.9949  -50.5848  -57.3984 H         1 UNK         0.0794 
    127 H127       32.7240  -47.2214  -55.4800 H         1 UNK         0.3016 
@<TRIPOS>BOND
     1    1    2 1    
     2    1   67 1    
     3    1   68 1    
     4    1   69 1    
     5    2    3 2    
     6    2    4 am   BACKBONE|DICT|INTERRES
     7    4    5 1    
     8    4   70 1    
     9    5    6 1    
    10    5   65 1    
    11    5   71 1    
    12    6    7 1    
    13    6   72 1    
    14    6   73 1    
    15    7    8 1    
    16    8    9 1    
    17    8   74 1    
    18    8   75 1    
    19    9   10 ar   
    20    9   14 ar   
    21   10   11 ar   
    22   10   76 1    
    23   11   12 ar   
    24   11   48 1    
    25   12   13 ar   
    26   12   77 1    
    27   13   14 ar   
    28   13   15 1    
    29   14   78 1    
    30   15   16 1    
    31   15   79 1    
    32   15   80 1    
    33   16   17 1    
    34   17   18 1    
    35   17   81 1    
    36   17   82 1    
    37   18   19 1    
    38   18   22 1    
    39   18   83 1    
    40   19   20 am   BACKBONE|DICT|INTERRES
    41   19   21 2    
    42   20   84 1    
    43   20   85 1    
    44   22   23 am   BACKBONE|DICT|INTERRES
    45   22   86 1    
    46   23   24 2    
    47   23   25 1    
    48   25   26 1    
    49   25   27 1    
    50   25   87 1    
    51   26   88 1    
    52   26   89 1    
    53   26   90 1    
    54   27   28 am   BACKBONE|DICT|INTERRES
    55   27   91 1    
    56   28   29 2    
    57   28   30 1    
    58   30   31 1    
    59   30   32 1    
    60   30   92 1    
    61   31   93 1    
    62   31   94 1    
    63   31   95 1    
    64   32   33 am   BACKBONE|DICT|INTERRES
    65   32   96 1    
    66   33   34 2    
    67   33   35 1    
    68   35   36 1    
    69   35   37 1    
    70   35   97 1    
    71   36   98 1    
    72   36   99 1    
    73   36  100 1    
    74   37   38 am   BACKBONE|DICT|INTERRES
    75   37  101 1    
    76   38   39 2    
    77   38   40 1    
    78   40   41 1    
    79   40   42 1    
    80   40  102 1    
    81   41  103 1    
    82   41  104 1    
    83   41  105 1    
    84   42   43 am   BACKBONE|DICT|INTERRES
    85   42  106 1    
    86   43   44 2    
    87   43   45 1    
    88   45   46 1    
    89   45   49 1    
    90   45  107 1    
    91   46   47 1    
    92   46  108 1    
    93   46  109 1    
    94   47   48 1    
    95   48  110 1    
    96   48  111 1    
    97   49   50 am   BACKBONE|DICT|INTERRES
    98   49  112 1    
    99   50   51 2    
   100   50   52 1    
   101   52   53 1    
   102   52   54 1    
   103   52  113 1    
   104   53  114 1    
   105   53  115 1    
   106   53  116 1    
   107   54   55 am   BACKBONE|DICT|INTERRES
   108   54  117 1    
   109   55   56 2    
   110   55   57 1    
   111   57   58 1    
   112   57   59 1    
   113   57  118 1    
   114   58  119 1    
   115   58  120 1    
   116   58  121 1    
   117   59   60 am   BACKBONE|DICT|INTERRES
   118   59  122 1    
   119   60   61 2    
   120   60   62 1    
   121   62   63 1    
   122   62   64 1    
   123   62  123 1    
   124   63  124 1    
   125   63  125 1    
   126   63  126 1    
   127   64   65 am   BACKBONE|DICT|INTERRES
   128   64  127 1    
   129   65   66 2    
@<TRIPOS>SUBSTRUCTURE
     1 UNK         1 GROUP             0       ****    0 ROOT    
