@<TRIPOS>MOLECULE
3R134
127   129    1
SMALL
USER_CHARGES


@<TRIPOS>ATOM
      1 CA         30.3763  -47.8291  -49.3889 C.3       0 UNK        -0.1968 
      2 C          31.7935  -47.2793  -49.4519 C.2       0 UNK         0.4852 
      3 O          32.5513  -47.4289  -48.4930 O.2       0 UNK        -0.5359 
      4 N          32.1693  -46.6630  -50.5801 N.am      1 UNK        -0.4300 
      5 CA         33.4575  -45.9958  -50.8317 C.3       1 UNK         0.0863 
      6 C6         33.3342  -44.9538  -51.9755 C.3       11 UNK        -0.0953 
      7 S7         32.0506  -43.6969  -51.6664 S.3       11 UNK        -0.2369 
      8 C8         32.3478  -42.5560  -53.0526 C.3       11 UNK         0.0226 
      9 C9         31.8258  -43.1112  -54.3704 C.ar      11 UNK        -0.0699 
     10 C10        32.6750  -43.8096  -55.2344 C.ar      11 UNK        -0.0804 
     11 C11        32.2007  -44.3014  -56.4551 C.ar      11 UNK        -0.0871 
     12 C12        30.8653  -44.0868  -56.8094 C.ar      11 UNK        -0.1008 
     13 C13        30.0052  -43.3969  -55.9499 C.ar      11 UNK        -0.0735 
     14 C14        30.4916  -42.9090  -54.7337 C.ar      11 UNK        -0.0945 
     15 C15        28.5430  -43.2066  -56.3185 C.3       11 UNK         0.0169 
     16 S16        28.3306  -41.8919  -57.5596 S.3       11 UNK        -0.2669 
     17 C17        26.5253  -41.5778  -57.5491 C.3       11 UNK        -0.0850 
     18 CA         25.6093  -42.8212  -57.3724 C.3       10 UNK         0.0855 
     19 C          24.1099  -42.4077  -57.2967 C.2       10 UNK         0.5543 
     20 N          23.2355  -42.9019  -58.1649 N.am      10 UNK        -0.7343 
     21 O          23.7321  -41.6274  -56.4263 O.2       10 UNK        -0.5027 
     22 N          25.9020  -43.8584  -58.3764 N.am      10 UNK        -0.4495 
     23 C          25.7410  -45.1721  -58.1794 C.2       10 UNK         0.4903 
     24 O          25.3214  -45.6552  -57.1258 O.2       10 UNK        -0.4860 
     25 CA         26.0912  -46.0944  -59.3599 C.3       9 UNK         0.0227 
     26 CB         27.3077  -45.6040  -60.1731 C.3       9 UNK        -0.1964 
     27 N          26.3669  -47.4371  -58.8531 N.am      9 UNK        -0.4231 
     28 C          25.8047  -48.5697  -59.2892 C.2       9 UNK         0.5014 
     29 O          25.0035  -48.6229  -60.2240 O.2       9 UNK        -0.5270 
     30 CA         26.2056  -49.8764  -58.5815 C.3       8 UNK         0.0284 
     31 CB         27.3628  -50.5590  -59.3290 C.3       8 UNK        -0.1977 
     32 N          26.5760  -49.7054  -57.1740 N.am      8 UNK        -0.4342 
     33 C          25.7106  -49.4506  -56.1817 C.2       8 UNK         0.5039 
     34 O          24.5003  -49.2998  -56.3516 O.2       8 UNK        -0.5547 
     35 CA         26.2829  -49.3733  -54.7578 C.3       7 UNK         0.0281 
     36 CB         26.5036  -50.7847  -54.1874 C.3       7 UNK        -0.1963 
     37 N          27.5474  -48.6381  -54.7343 N.am      7 UNK        -0.4444 
     38 C          27.6883  -47.3709  -54.3216 C.2       7 UNK         0.5104 
     39 O          26.7791  -46.7063  -53.8240 O.2       7 UNK        -0.5100 
     40 CA         29.0783  -46.7237  -54.4805 C.3       6 UNK         0.0396 
     41 CB         29.8217  -46.6746  -53.1398 C.3       6 UNK        -0.1801 
     42 N          29.9335  -47.3816  -55.4695 N.am      6 UNK        -0.4747 
     43 C          29.7063  -47.3814  -56.7904 C.2       6 UNK         0.5012 
     44 O          28.7532  -46.8108  -57.3170 O.2       6 UNK        -0.5003 
     45 CA         30.6545  -48.2219  -57.6690 C.3       5 UNK         0.0782 
     46 C46        31.7745  -47.3625  -58.3057 C.3       11 UNK        -0.0868 
     47 S47        33.0873  -46.8441  -57.1425 S.3       11 UNK        -0.2515 
     48 C48        33.1424  -45.0406  -57.3948 C.3       11 UNK         0.0199 
     49 N          31.1782  -49.4153  -56.9917 N.am      5 UNK        -0.4607 
     50 C          30.4321  -50.3898  -56.4525 C.2       4 UNK         0.5031 
     51 O          29.2012  -50.3900  -56.4770 O.2       4 UNK        -0.5119 
     52 CA         31.1601  -51.5444  -55.7454 C.3       4 UNK         0.0263 
     53 CB         31.1699  -52.7915  -56.6435 C.3       4 UNK        -0.1967 
     54 N          32.5324  -51.2348  -55.3294 N.am      4 UNK        -0.4237 
     55 C          32.8676  -50.3513  -54.3800 C.2       3 UNK         0.4908 
     56 O          32.0596  -49.6365  -53.7791 O.2       3 UNK        -0.5102 
     57 CA         34.3628  -50.2345  -54.0708 C.3       3 UNK         0.0241 
     58 CB         35.0524  -49.2606  -55.0440 C.3       3 UNK        -0.1971 
     59 N          34.5164  -49.7608  -52.7009 N.am      3 UNK        -0.4139 
     60 C          35.6055  -49.8974  -51.9358 C.2       2 UNK         0.5016 
     61 O          36.6209  -50.4936  -52.3010 O.2       2 UNK        -0.5319 
     62 CA         35.5498  -49.2699  -50.5247 C.3       2 UNK         0.0286 
     63 CB         36.9456  -48.8690  -50.0007 C.3       2 UNK        -0.1963 
     64 N          34.6116  -48.1422  -50.4083 N.am      2 UNK        -0.4790 
     65 C          34.6204  -46.9880  -51.0935 C.2       1 UNK         0.5024 
     66 O          35.4882  -46.7061  -51.9216 O.2       1 UNK        -0.4888 
     67 H67        29.7706  -47.5000  -50.2320 H         1 UNK         0.0892 
     68 H68        30.3962  -48.9185  -49.3869 H         1 UNK         0.0892 
     69 H69        29.8861  -47.4958  -48.4746 H         1 UNK         0.0892 
     70 H70        31.5039  -46.5830  -51.3337 H         1 UNK         0.3107 
     71 H71        33.7298  -45.4527  -49.9242 H         1 UNK         0.0773 
     72 H72        33.1159  -45.4531  -52.9211 H         1 UNK         0.0680 
     73 H73        34.2798  -44.4262  -52.1147 H         1 UNK         0.0680 
     74 H74        33.4131  -42.3315  -53.1246 H         1 UNK         0.0650 
     75 H75        31.8540  -41.6079  -52.8349 H         1 UNK         0.0650 
     76 H76        33.7082  -43.9682  -54.9569 H         1 UNK         0.1397 
     77 H77        30.4868  -44.4627  -57.7499 H         1 UNK         0.1363 
     78 H78        29.8311  -42.3746  -54.0646 H         1 UNK         0.1355 
     79 H79        28.1476  -44.1467  -56.7039 H         1 UNK         0.0707 
     80 H80        27.9614  -42.9636  -55.4279 H         1 UNK         0.0707 
     81 H81        26.3327  -40.8586  -56.7505 H         1 UNK         0.1034 
     82 H82        26.2750  -41.0595  -58.4765 H         1 UNK         0.1034 
     83 H83        25.8196  -43.2411  -56.3879 H         1 UNK         0.0482 
     84 H84        23.5339  -43.5473  -58.8781 H         1 UNK         0.3460 
     85 H85        22.2673  -42.6290  -58.1020 H         1 UNK         0.3460 
     86 H86        26.2470  -43.5312  -59.2664 H         1 UNK         0.2989 
     87 H87        25.2181  -46.1101  -60.0149 H         1 UNK         0.0559 
     88 H88        28.1729  -45.4176  -59.5354 H         1 UNK         0.0848 
     89 H89        27.0869  -44.6804  -60.7085 H         1 UNK         0.0848 
     90 H90        27.6022  -46.3385  -60.9229 H         1 UNK         0.0848 
     91 H91        27.0015  -47.4668  -58.0608 H         1 UNK         0.3144 
     92 H92        25.3421  -50.5441  -58.6194 H         1 UNK         0.0727 
     93 H93        27.6177  -51.5178  -58.8768 H         1 UNK         0.0790 
     94 H94        28.2609  -49.9419  -59.3331 H         1 UNK         0.0790 
     95 H95        27.0954  -50.7521  -60.3689 H         1 UNK         0.0790 
     96 H96        27.5498  -49.8889  -56.9366 H         1 UNK         0.3215 
     97 H97        25.5424  -48.8714  -54.1309 H         1 UNK         0.0863 
     98 H98        26.8564  -50.7428  -53.1569 H         1 UNK         0.0808 
     99 H99        27.2333  -51.3508  -54.7676 H         1 UNK         0.0808 
    100 H100       25.5734  -51.3545  -54.1883 H         1 UNK         0.0808 
    101 H101       28.3473  -49.1008  -55.1507 H         1 UNK         0.3118 
    102 H102       28.9128  -45.6977  -54.8094 H         1 UNK         0.0546 
    103 H103       29.2227  -46.1711  -52.3797 H         1 UNK         0.0828 
    104 H104       30.7532  -46.1182  -53.2404 H         1 UNK         0.0828 
    105 H105       30.0555  -47.6759  -52.7756 H         1 UNK         0.0828 
    106 H106       30.7333  -47.8931  -55.1194 H         1 UNK         0.3005 
    107 H107       30.0361  -48.5887  -58.4904 H         1 UNK         0.1257 
    108 H108       31.3452  -46.4924  -58.8052 H         1 UNK         0.0775 
    109 H109       32.2566  -47.9360  -59.0988 H         1 UNK         0.0775 
    110 H110       34.1663  -44.7032  -57.2267 H         1 UNK         0.0840 
    111 H111       32.9190  -44.7934  -58.4336 H         1 UNK         0.0840 
    112 H112       32.1825  -49.4740  -56.9123 H         1 UNK         0.2987 
    113 H113       30.5857  -51.7769  -54.8460 H         1 UNK         0.0785 
    114 H114       30.1571  -53.0633  -56.9457 H         1 UNK         0.0798 
    115 H115       31.5911  -53.6525  -56.1241 H         1 UNK         0.0798 
    116 H116       31.7486  -52.6300  -57.5539 H         1 UNK         0.0798 
    117 H117       33.2664  -51.7648  -55.7783 H         1 UNK         0.3079 
    118 H118       34.8147  -51.2250  -54.1581 H         1 UNK         0.0794 
    119 H119       34.6644  -48.2470  -54.9344 H         1 UNK         0.0786 
    120 H120       34.9029  -49.5604  -56.0819 H         1 UNK         0.0786 
    121 H121       36.1280  -49.2225  -54.8714 H         1 UNK         0.0786 
    122 H122       33.6986  -49.2963  -52.3267 H         1 UNK         0.3032 
    123 H123       35.1664  -50.0537  -49.8694 H         1 UNK         0.1094 
    124 H124       37.4260  -48.1354  -50.6488 H         1 UNK         0.0794 
    125 H125       36.8865  -48.4444  -48.9986 H         1 UNK         0.0794 
    126 H126       37.6074  -49.7342  -49.9442 H         1 UNK         0.0794 
    127 H127       33.8792  -48.2407  -49.7103 H         1 UNK         0.3016 
@<TRIPOS>BOND
     1    1    2 1    
     2    1   67 1    
     3    1   68 1    
     4    1   69 1    
     5    2    3 2    
     6    2    4 am   BACKBONE|DICT|INTERRES
     7    4    5 1    
     8    4   70 1    
     9    5    6 1    
    10    5   65 1    
    11    5   71 1    
    12    6    7 1    
    13    6   72 1    
    14    6   73 1    
    15    7    8 1    
    16    8    9 1    
    17    8   74 1    
    18    8   75 1    
    19    9   10 ar   
    20    9   14 ar   
    21   10   11 ar   
    22   10   76 1    
    23   11   12 ar   
    24   11   48 1    
    25   12   13 ar   
    26   12   77 1    
    27   13   14 ar   
    28   13   15 1    
    29   14   78 1    
    30   15   16 1    
    31   15   79 1    
    32   15   80 1    
    33   16   17 1    
    34   17   18 1    
    35   17   81 1    
    36   17   82 1    
    37   18   19 1    
    38   18   22 1    
    39   18   83 1    
    40   19   20 am   BACKBONE|DICT|INTERRES
    41   19   21 2    
    42   20   84 1    
    43   20   85 1    
    44   22   23 am   BACKBONE|DICT|INTERRES
    45   22   86 1    
    46   23   24 2    
    47   23   25 1    
    48   25   26 1    
    49   25   27 1    
    50   25   87 1    
    51   26   88 1    
    52   26   89 1    
    53   26   90 1    
    54   27   28 am   BACKBONE|DICT|INTERRES
    55   27   91 1    
    56   28   29 2    
    57   28   30 1    
    58   30   31 1    
    59   30   32 1    
    60   30   92 1    
    61   31   93 1    
    62   31   94 1    
    63   31   95 1    
    64   32   33 am   BACKBONE|DICT|INTERRES
    65   32   96 1    
    66   33   34 2    
    67   33   35 1    
    68   35   36 1    
    69   35   37 1    
    70   35   97 1    
    71   36   98 1    
    72   36   99 1    
    73   36  100 1    
    74   37   38 am   BACKBONE|DICT|INTERRES
    75   37  101 1    
    76   38   39 2    
    77   38   40 1    
    78   40   41 1    
    79   40   42 1    
    80   40  102 1    
    81   41  103 1    
    82   41  104 1    
    83   41  105 1    
    84   42   43 am   BACKBONE|DICT|INTERRES
    85   42  106 1    
    86   43   44 2    
    87   43   45 1    
    88   45   46 1    
    89   45   49 1    
    90   45  107 1    
    91   46   47 1    
    92   46  108 1    
    93   46  109 1    
    94   47   48 1    
    95   48  110 1    
    96   48  111 1    
    97   49   50 am   BACKBONE|DICT|INTERRES
    98   49  112 1    
    99   50   51 2    
   100   50   52 1    
   101   52   53 1    
   102   52   54 1    
   103   52  113 1    
   104   53  114 1    
   105   53  115 1    
   106   53  116 1    
   107   54   55 am   BACKBONE|DICT|INTERRES
   108   54  117 1    
   109   55   56 2    
   110   55   57 1    
   111   57   58 1    
   112   57   59 1    
   113   57  118 1    
   114   58  119 1    
   115   58  120 1    
   116   58  121 1    
   117   59   60 am   BACKBONE|DICT|INTERRES
   118   59  122 1    
   119   60   61 2    
   120   60   62 1    
   121   62   63 1    
   122   62   64 1    
   123   62  123 1    
   124   63  124 1    
   125   63  125 1    
   126   63  126 1    
   127   64   65 am   BACKBONE|DICT|INTERRES
   128   64  127 1    
   129   65   66 2    
@<TRIPOS>SUBSTRUCTURE
     1 UNK         1 GROUP             0       ****    0 ROOT    
