@<TRIPOS>MOLECULE
3R134
127   129    1
SMALL
USER_CHARGES


@<TRIPOS>ATOM
      1 CA         28.9507  -45.8370  -54.9858 C.3       0 UNK        -0.1968 
      2 C          29.6395  -46.1982  -53.6826 C.2       0 UNK         0.4852 
      3 O          29.0023  -46.7554  -52.7887 O.2       0 UNK        -0.5359 
      4 N          30.9373  -45.8903  -53.5668 N.am      1 UNK        -0.4300 
      5 CA         31.7671  -46.2283  -52.4071 C.3       1 UNK         0.0863 
      6 C6         33.1279  -45.4957  -52.4294 C.3       11 UNK        -0.0953 
      7 S7         32.9161  -43.6851  -52.3903 S.3       11 UNK        -0.2369 
      8 C8         33.7282  -43.1717  -53.9349 C.3       11 UNK         0.0226 
      9 C9         32.9372  -43.5561  -55.1791 C.ar      11 UNK        -0.0699 
     10 C10        33.3788  -44.5956  -56.0030 C.ar      11 UNK        -0.0804 
     11 C11        32.7140  -44.8928  -57.1973 C.ar      11 UNK        -0.0871 
     12 C12        31.5980  -44.1322  -57.5637 C.ar      11 UNK        -0.1008 
     13 C13        31.1315  -43.1035  -56.7390 C.ar      11 UNK        -0.0735 
     14 C14        31.8035  -42.8240  -55.5448 C.ar      11 UNK        -0.0945 
     15 C15        29.9469  -42.2491  -57.1713 C.3       11 UNK         0.0169 
     16 S16        28.4470  -43.2336  -57.4838 S.3       11 UNK        -0.2669 
     17 C17        27.2966  -41.9281  -58.0358 C.3       11 UNK        -0.0850 
     18 CA         26.0430  -41.8162  -57.1301 C.3       10 UNK         0.0855 
     19 C          25.2290  -40.5342  -57.4790 C.2       10 UNK         0.5543 
     20 N          24.0129  -40.6360  -58.0018 N.am      10 UNK        -0.7343 
     21 O          25.7136  -39.4254  -57.2675 O.2       10 UNK        -0.5027 
     22 N          25.2640  -43.0665  -57.1400 N.am      10 UNK        -0.4495 
     23 C          24.3238  -43.3988  -56.2457 C.2       10 UNK         0.4903 
     24 O          24.0219  -42.7029  -55.2759 O.2       10 UNK        -0.4860 
     25 CA         23.5754  -44.7241  -56.4772 C.3       9 UNK         0.0227 
     26 CB         22.2239  -44.4602  -57.1619 C.3       9 UNK        -0.1964 
     27 N          24.3370  -45.6944  -57.2713 N.am      9 UNK        -0.4231 
     28 C          25.3501  -46.4280  -56.7928 C.2       9 UNK         0.5014 
     29 O          25.7562  -46.3640  -55.6310 O.2       9 UNK        -0.5270 
     30 CA         26.0365  -47.3760  -57.7915 C.3       8 UNK         0.0284 
     31 CB         27.2553  -46.6996  -58.4417 C.3       8 UNK        -0.1977 
     32 N          26.4520  -48.6280  -57.1535 N.am      8 UNK        -0.4342 
     33 C          25.6053  -49.5793  -56.7362 C.2       8 UNK         0.5039 
     34 O          24.3828  -49.5113  -56.8770 O.2       8 UNK        -0.5547 
     35 CA         26.2052  -50.8364  -56.0847 C.3       7 UNK         0.0281 
     36 CB         26.1531  -52.0196  -57.0659 C.3       7 UNK        -0.1963 
     37 N          27.5888  -50.6631  -55.6370 N.am      7 UNK        -0.4444 
     38 C          27.9648  -50.2351  -54.4281 C.2       7 UNK         0.5104 
     39 O          27.1715  -49.8587  -53.5658 O.2       7 UNK        -0.5100 
     40 CA         29.4722  -50.2771  -54.0975 C.3       6 UNK         0.0396 
     41 CB         29.9160  -51.7175  -53.7800 C.3       6 UNK        -0.1801 
     42 N          30.3866  -49.6637  -55.0733 N.am      6 UNK        -0.4747 
     43 C          30.5780  -49.9572  -56.3678 C.2       6 UNK         0.5012 
     44 O          29.9479  -50.8168  -56.9848 O.2       6 UNK        -0.5003 
     45 CA         31.6529  -49.1416  -57.1102 C.3       5 UNK         0.0782 
     46 C46        31.0926  -47.7582  -57.5220 C.3       11 UNK        -0.0868 
     47 S47        31.9991  -47.0228  -58.9210 S.3       11 UNK        -0.2515 
     48 C48        33.2642  -45.9851  -58.1113 C.3       11 UNK         0.0199 
     49 N          32.9001  -49.0137  -56.3480 N.am      5 UNK        -0.4607 
     50 C          33.7169  -50.0220  -56.0153 C.2       4 UNK         0.5031 
     51 O          33.4792  -51.2062  -56.2524 O.2       4 UNK        -0.5119 
     52 CA         35.0434  -49.6497  -55.3385 C.3       4 UNK         0.0263 
     53 CB         35.5764  -48.2538  -55.7209 C.3       4 UNK        -0.1967 
     54 N          34.9065  -49.7330  -53.8875 N.am      4 UNK        -0.4237 
     55 C          35.8364  -50.2438  -53.0669 C.2       3 UNK         0.4908 
     56 O          36.8825  -50.7594  -53.4649 O.2       3 UNK        -0.5102 
     57 CA         35.6060  -50.1453  -51.5453 C.3       3 UNK         0.0241 
     58 CB         36.6307  -49.1905  -50.9080 C.3       3 UNK        -0.1971 
     59 N          34.2629  -49.6997  -51.1751 N.am      3 UNK        -0.4139 
     60 C          33.1645  -50.4637  -51.2055 C.2       2 UNK         0.5016 
     61 O          33.1660  -51.6577  -51.5047 O.2       2 UNK        -0.5319 
     62 CA         31.8340  -49.7720  -50.8606 C.3       2 UNK         0.0286 
     63 CB         31.4706  -50.0179  -49.3875 C.3       2 UNK        -0.1963 
     64 N          31.7962  -48.3269  -51.1308 N.am      2 UNK        -0.4790 
     65 C          31.9744  -47.7513  -52.3289 C.2       1 UNK         0.5024 
     66 O          32.3059  -48.3663  -53.3454 O.2       1 UNK        -0.4888 
     67 H67        29.6404  -45.4035  -55.7080 H         1 UNK         0.0892 
     68 H68        28.5087  -46.7302  -55.4245 H         1 UNK         0.0892 
     69 H69        28.1529  -45.1169  -54.8051 H         1 UNK         0.0892 
     70 H70        31.4104  -45.4034  -54.3151 H         1 UNK         0.3107 
     71 H71        31.2258  -45.9098  -51.5133 H         1 UNK         0.0773 
     72 H72        33.7250  -45.7718  -51.5581 H         1 UNK         0.0680 
     73 H73        33.7138  -45.7878  -53.3026 H         1 UNK         0.0680 
     74 H74        34.7358  -43.5893  -53.9682 H         1 UNK         0.0650 
     75 H75        33.8536  -42.0882  -53.9153 H         1 UNK         0.0650 
     76 H76        34.2683  -45.1469  -55.7315 H         1 UNK         0.1397 
     77 H77        31.0933  -44.3313  -58.4993 H         1 UNK         0.1363 
     78 H78        31.4680  -42.0127  -54.9129 H         1 UNK         0.1355 
     79 H79        29.7198  -41.4941  -56.4168 H         1 UNK         0.0707 
     80 H80        30.2196  -41.7110  -58.0803 H         1 UNK         0.0707 
     81 H81        27.8299  -40.9758  -58.0678 H         1 UNK         0.1034 
     82 H82        27.0049  -42.1369  -59.0667 H         1 UNK         0.1034 
     83 H83        26.3934  -41.6690  -56.1065 H         1 UNK         0.0482 
     84 H84        23.6068  -41.5403  -58.1772 H         1 UNK         0.3460 
     85 H85        23.4967  -39.7981  -58.2198 H         1 UNK         0.3460 
     86 H86        25.4575  -43.7035  -57.8970 H         1 UNK         0.2989 
     87 H87        23.3752  -45.1621  -55.4968 H         1 UNK         0.0559 
     88 H88        22.3482  -44.0371  -58.1594 H         1 UNK         0.0848 
     89 H89        21.6236  -43.7569  -56.5827 H         1 UNK         0.0848 
     90 H90        21.6410  -45.3767  -57.2559 H         1 UNK         0.0848 
     91 H91        24.0598  -45.8134  -58.2357 H         1 UNK         0.3144 
     92 H92        25.3249  -47.6261  -58.5816 H         1 UNK         0.0727 
     93 H93        26.9598  -45.7986  -58.9808 H         1 UNK         0.0790 
     94 H94        27.7412  -47.3586  -59.1614 H         1 UNK         0.0790 
     95 H95        27.9992  -46.3998  -57.7046 H         1 UNK         0.0790 
     96 H96        27.4345  -48.7506  -56.9659 H         1 UNK         0.3215 
     97 H97        25.5797  -51.0839  -55.2240 H         1 UNK         0.0863 
     98 H98        26.7647  -51.8376  -57.9507 H         1 UNK         0.0808 
     99 H99        25.1327  -52.2022  -57.4061 H         1 UNK         0.0808 
    100 H100       26.5056  -52.9387  -56.5976 H         1 UNK         0.0808 
    101 H101       28.3321  -50.9292  -56.2827 H         1 UNK         0.3118 
    102 H102       29.5941  -49.6869  -53.1889 H         1 UNK         0.0546 
    103 H103       29.8151  -52.3737  -54.6451 H         1 UNK         0.0828 
    104 H104       29.3147  -52.1441  -52.9761 H         1 UNK         0.0828 
    105 H105       30.9576  -51.7510  -53.4605 H         1 UNK         0.0828 
    106 H106       31.0192  -48.9808  -54.6655 H         1 UNK         0.3005 
    107 H107       31.8843  -49.7051  -58.0175 H         1 UNK         0.1257 
    108 H108       31.0808  -47.0722  -56.6750 H         1 UNK         0.0775 
    109 H109       30.0558  -47.8421  -57.8529 H         1 UNK         0.0775 
    110 H110       33.9476  -46.6348  -57.5676 H         1 UNK         0.0840 
    111 H111       33.8610  -45.5072  -58.8891 H         1 UNK         0.0840 
    112 H112       33.1626  -48.0797  -56.0764 H         1 UNK         0.2987 
    113 H113       35.7694  -50.3871  -55.6884 H         1 UNK         0.0785 
    114 H114       35.6371  -48.1390  -56.8037 H         1 UNK         0.0798 
    115 H115       36.5833  -48.1044  -55.3305 H         1 UNK         0.0798 
    116 H116       34.9530  -47.4526  -55.3242 H         1 UNK         0.0798 
    117 H117       34.0410  -49.3665  -53.5029 H         1 UNK         0.3079 
    118 H118       35.7660  -51.1430  -51.1304 H         1 UNK         0.0794 
    119 H119       37.6515  -49.5131  -51.1185 H         1 UNK         0.0786 
    120 H120       36.5227  -49.1577  -49.8236 H         1 UNK         0.0786 
    121 H121       36.5261  -48.1735  -51.2883 H         1 UNK         0.0786 
    122 H122       34.1593  -48.7315  -50.9089 H         1 UNK         0.3032 
    123 H123       31.0676  -50.2422  -51.4772 H         1 UNK         0.1094 
    124 H124       31.4655  -51.0848  -49.1587 H         1 UNK         0.0794 
    125 H125       32.1823  -49.5432  -48.7108 H         1 UNK         0.0794 
    126 H126       30.4766  -49.6358  -49.1540 H         1 UNK         0.0794 
    127 H127       31.5320  -47.7390  -50.3524 H         1 UNK         0.3016 
@<TRIPOS>BOND
     1    1    2 1    
     2    1   67 1    
     3    1   68 1    
     4    1   69 1    
     5    2    3 2    
     6    2    4 am   BACKBONE|DICT|INTERRES
     7    4    5 1    
     8    4   70 1    
     9    5    6 1    
    10    5   65 1    
    11    5   71 1    
    12    6    7 1    
    13    6   72 1    
    14    6   73 1    
    15    7    8 1    
    16    8    9 1    
    17    8   74 1    
    18    8   75 1    
    19    9   10 ar   
    20    9   14 ar   
    21   10   11 ar   
    22   10   76 1    
    23   11   12 ar   
    24   11   48 1    
    25   12   13 ar   
    26   12   77 1    
    27   13   14 ar   
    28   13   15 1    
    29   14   78 1    
    30   15   16 1    
    31   15   79 1    
    32   15   80 1    
    33   16   17 1    
    34   17   18 1    
    35   17   81 1    
    36   17   82 1    
    37   18   19 1    
    38   18   22 1    
    39   18   83 1    
    40   19   20 am   BACKBONE|DICT|INTERRES
    41   19   21 2    
    42   20   84 1    
    43   20   85 1    
    44   22   23 am   BACKBONE|DICT|INTERRES
    45   22   86 1    
    46   23   24 2    
    47   23   25 1    
    48   25   26 1    
    49   25   27 1    
    50   25   87 1    
    51   26   88 1    
    52   26   89 1    
    53   26   90 1    
    54   27   28 am   BACKBONE|DICT|INTERRES
    55   27   91 1    
    56   28   29 2    
    57   28   30 1    
    58   30   31 1    
    59   30   32 1    
    60   30   92 1    
    61   31   93 1    
    62   31   94 1    
    63   31   95 1    
    64   32   33 am   BACKBONE|DICT|INTERRES
    65   32   96 1    
    66   33   34 2    
    67   33   35 1    
    68   35   36 1    
    69   35   37 1    
    70   35   97 1    
    71   36   98 1    
    72   36   99 1    
    73   36  100 1    
    74   37   38 am   BACKBONE|DICT|INTERRES
    75   37  101 1    
    76   38   39 2    
    77   38   40 1    
    78   40   41 1    
    79   40   42 1    
    80   40  102 1    
    81   41  103 1    
    82   41  104 1    
    83   41  105 1    
    84   42   43 am   BACKBONE|DICT|INTERRES
    85   42  106 1    
    86   43   44 2    
    87   43   45 1    
    88   45   46 1    
    89   45   49 1    
    90   45  107 1    
    91   46   47 1    
    92   46  108 1    
    93   46  109 1    
    94   47   48 1    
    95   48  110 1    
    96   48  111 1    
    97   49   50 am   BACKBONE|DICT|INTERRES
    98   49  112 1    
    99   50   51 2    
   100   50   52 1    
   101   52   53 1    
   102   52   54 1    
   103   52  113 1    
   104   53  114 1    
   105   53  115 1    
   106   53  116 1    
   107   54   55 am   BACKBONE|DICT|INTERRES
   108   54  117 1    
   109   55   56 2    
   110   55   57 1    
   111   57   58 1    
   112   57   59 1    
   113   57  118 1    
   114   58  119 1    
   115   58  120 1    
   116   58  121 1    
   117   59   60 am   BACKBONE|DICT|INTERRES
   118   59  122 1    
   119   60   61 2    
   120   60   62 1    
   121   62   63 1    
   122   62   64 1    
   123   62  123 1    
   124   63  124 1    
   125   63  125 1    
   126   63  126 1    
   127   64   65 am   BACKBONE|DICT|INTERRES
   128   64  127 1    
   129   65   66 2    
@<TRIPOS>SUBSTRUCTURE
     1 UNK         1 GROUP             0       ****    0 ROOT    
