@<TRIPOS>MOLECULE
3R134
127   129    1
SMALL
USER_CHARGES


@<TRIPOS>ATOM
      1 CA         37.6877  -41.3089  -53.4630 C.3       0 UNK        -0.1968 
      2 C          37.2709  -42.7712  -53.3995 C.2       0 UNK         0.4852 
      3 O          37.8443  -43.5363  -52.6222 O.2       0 UNK        -0.5359 
      4 N          36.2849  -43.1654  -54.2160 N.am      1 UNK        -0.4300 
      5 CA         35.7060  -44.5107  -54.2398 C.3       1 UNK         0.0863 
      6 C6         34.9132  -44.7438  -55.5492 C.3       11 UNK        -0.0953 
      7 S7         34.4802  -46.4995  -55.7930 S.3       11 UNK        -0.2369 
      8 C8         32.8104  -46.4170  -56.5243 C.3       11 UNK         0.0226 
      9 C9         31.8150  -45.6201  -55.6890 C.ar      11 UNK        -0.0699 
     10 C10        31.4963  -46.0126  -54.3859 C.ar      11 UNK        -0.0804 
     11 C11        30.5758  -45.2821  -53.6236 C.ar      11 UNK        -0.0871 
     12 C12        29.9806  -44.1444  -54.1785 C.ar      11 UNK        -0.1008 
     13 C13        30.2862  -43.7455  -55.4825 C.ar      11 UNK        -0.0735 
     14 C14        31.2031  -44.4869  -56.2311 C.ar      11 UNK        -0.0945 
     15 C15        29.6486  -42.5030  -56.0849 C.3       11 UNK         0.0169 
     16 S16        28.1407  -42.9081  -57.0206 S.3       11 UNK        -0.2669 
     17 C17        26.8575  -42.8832  -55.7191 C.3       11 UNK        -0.0850 
     18 CA         26.4429  -44.2955  -55.2117 C.3       10 UNK         0.0855 
     19 C          25.4400  -44.2370  -54.0212 C.2       10 UNK         0.5543 
     20 N          24.5256  -45.1896  -53.8820 N.am      10 UNK        -0.7343 
     21 O          25.5088  -43.3344  -53.1906 O.2       10 UNK        -0.5027 
     22 N          26.0548  -45.2325  -56.2782 N.am      10 UNK        -0.4495 
     23 C          25.0882  -45.0815  -57.1927 C.2       10 UNK         0.4903 
     24 O          24.3805  -44.0782  -57.2941 O.2       10 UNK        -0.4860 
     25 CA         24.8602  -46.2840  -58.1320 C.3       9 UNK         0.0227 
     26 CB         24.1127  -45.9139  -59.4310 C.3       9 UNK        -0.1964 
     27 N          26.0969  -47.0280  -58.4051 N.am      9 UNK        -0.4231 
     28 C          27.1714  -46.6216  -59.0996 C.2       9 UNK         0.5014 
     29 O          27.2300  -45.5655  -59.7302 O.2       9 UNK        -0.5270 
     30 CA         28.4092  -47.5420  -59.0778 C.3       8 UNK         0.0284 
     31 CB         29.4856  -46.9599  -58.1479 C.3       8 UNK        -0.1977 
     32 N          28.1210  -48.9189  -58.6637 N.am      8 UNK        -0.4342 
     33 C          27.4403  -49.8128  -59.3951 C.2       8 UNK         0.5039 
     34 O          27.0290  -49.5975  -60.5356 O.2       8 UNK        -0.5547 
     35 CA         27.1385  -51.1622  -58.7254 C.3       7 UNK         0.0281 
     36 CB         28.3170  -52.1346  -58.8956 C.3       7 UNK        -0.1963 
     37 N          26.8260  -50.9999  -57.3028 N.am      7 UNK        -0.4444 
     38 C          25.6471  -50.5628  -56.8363 C.2       7 UNK         0.5104 
     39 O          24.6825  -50.2990  -57.5536 O.2       7 UNK        -0.5100 
     40 CA         25.5263  -50.3600  -55.3150 C.3       6 UNK         0.0396 
     41 CB         25.0653  -51.6582  -54.6342 C.3       6 UNK        -0.1801 
     42 N          26.7678  -49.8954  -54.6906 N.am      6 UNK        -0.4747 
     43 C          27.3257  -48.6952  -54.9080 C.2       6 UNK         0.5012 
     44 O          26.8382  -47.8416  -55.6460 O.2       6 UNK        -0.5003 
     45 CA         28.6796  -48.4200  -54.2282 C.3       5 UNK         0.0782 
     46 C46        28.4652  -47.7825  -52.8333 C.3       11 UNK        -0.0868 
     47 S47        30.0294  -47.4701  -51.9436 S.3       11 UNK        -0.2515 
     48 C48        30.2476  -45.6758  -52.1863 C.3       11 UNK         0.0199 
     49 N          29.5408  -49.6066  -54.1755 N.am      5 UNK        -0.4607 
     50 C          29.9811  -50.3009  -55.2340 C.2       4 UNK         0.5031 
     51 O          29.6059  -50.0875  -56.3890 O.2       4 UNK        -0.5119 
     52 CA         30.9969  -51.4248  -54.9378 C.3       4 UNK         0.0263 
     53 CB         31.7917  -51.8495  -56.1911 C.3       4 UNK        -0.1967 
     54 N          31.9041  -51.1049  -53.8222 N.am      4 UNK        -0.4237 
     55 C          32.7514  -50.0666  -53.7591 C.2       3 UNK         0.4908 
     56 O          32.9218  -49.2554  -54.6690 O.2       3 UNK        -0.5102 
     57 CA         33.5448  -49.9035  -52.4599 C.3       3 UNK         0.0241 
     58 CB         34.8367  -50.7392  -52.4903 C.3       3 UNK        -0.1971 
     59 N          33.8724  -48.4887  -52.2954 N.am      3 UNK        -0.4139 
     60 C          33.9923  -47.8559  -51.1221 C.2       2 UNK         0.5016 
     61 O          33.8926  -48.4269  -50.0345 O.2       2 UNK        -0.5319 
     62 CA         34.2771  -46.3431  -51.1590 C.3       2 UNK         0.0286 
     63 CB         35.0715  -45.8568  -49.9293 C.3       2 UNK        -0.1963 
     64 N          34.9719  -45.9431  -52.3854 N.am      2 UNK        -0.4790 
     65 C          34.8464  -44.7485  -52.9779 C.2       1 UNK         0.5024 
     66 O          34.0968  -43.8566  -52.5723 O.2       1 UNK        -0.4888 
     67 H67        37.5444  -40.8359  -52.4918 H         1 UNK         0.0892 
     68 H68        38.7416  -41.2302  -53.7287 H         1 UNK         0.0892 
     69 H69        37.1101  -40.7511  -54.2000 H         1 UNK         0.0892 
     70 H70        35.8306  -42.4841  -54.8069 H         1 UNK         0.3107 
     71 H71        36.5401  -45.2163  -54.2242 H         1 UNK         0.0773 
     72 H72        34.0222  -44.1154  -55.5731 H         1 UNK         0.0680 
     73 H73        35.5152  -44.4426  -56.4079 H         1 UNK         0.0680 
     74 H74        32.4326  -47.4329  -56.6455 H         1 UNK         0.0650 
     75 H75        32.8937  -46.0007  -57.5292 H         1 UNK         0.0650 
     76 H76        31.9717  -46.8873  -53.9671 H         1 UNK         0.1397 
     77 H77        29.2803  -43.5626  -53.5948 H         1 UNK         0.1363 
     78 H78        31.4400  -44.1775  -57.2397 H         1 UNK         0.1355 
     79 H79        29.4342  -41.7637  -55.3120 H         1 UNK         0.0707 
     80 H80        30.3566  -42.0249  -56.7637 H         1 UNK         0.0707 
     81 H81        25.9882  -42.3560  -56.1143 H         1 UNK         0.1034 
     82 H82        27.2111  -42.2709  -54.8883 H         1 UNK         0.1034 
     83 H83        27.3340  -44.7476  -54.7780 H         1 UNK         0.0482 
     84 H84        24.4735  -45.9445  -54.5466 H         1 UNK         0.3460 
     85 H85        23.8855  -45.1519  -53.1046 H         1 UNK         0.3460 
     86 H86        26.5107  -46.1402  -56.2292 H         1 UNK         0.2989 
     87 H87        24.2225  -46.9750  -57.5789 H         1 UNK         0.0559 
     88 H88        24.6414  -45.1499  -60.0014 H         1 UNK         0.0848 
     89 H89        23.1199  -45.5203  -59.2098 H         1 UNK         0.0848 
     90 H90        23.9799  -46.7835  -60.0744 H         1 UNK         0.0848 
     91 H91        26.1951  -47.8943  -57.8920 H         1 UNK         0.3144 
     92 H92        28.8130  -47.5726  -60.0919 H         1 UNK         0.0727 
     93 H93        30.3804  -47.5821  -58.1343 H         1 UNK         0.0790 
     94 H94        29.1261  -46.8646  -57.1231 H         1 UNK         0.0790 
     95 H95        29.7859  -45.9641  -58.4766 H         1 UNK         0.0790 
     96 H96        28.4940  -49.2174  -57.7661 H         1 UNK         0.3215 
     97 H97        26.2692  -51.5964  -59.2249 H         1 UNK         0.0863 
     98 H98        29.2334  -51.7459  -58.4519 H         1 UNK         0.0808 
     99 H99        28.5207  -52.3137  -59.9522 H         1 UNK         0.0808 
    100 H100       28.1048  -53.1011  -58.4386 H         1 UNK         0.0808 
    101 H101       27.5881  -51.1299  -56.6512 H         1 UNK         0.3118 
    102 H102       24.7621  -49.5984  -55.1445 H         1 UNK         0.0546 
    103 H103       24.8919  -51.5080  -53.5685 H         1 UNK         0.0828 
    104 H104       25.7979  -52.4583  -54.7470 H         1 UNK         0.0828 
    105 H105       24.1278  -52.0124  -55.0655 H         1 UNK         0.0828 
    106 H106       27.2417  -50.5388  -54.0728 H         1 UNK         0.3005 
    107 H107       29.1965  -47.6892  -54.8532 H         1 UNK         0.1257 
    108 H108       27.8573  -48.4359  -52.2043 H         1 UNK         0.0775 
    109 H109       27.9083  -46.8474  -52.9225 H         1 UNK         0.0775 
    110 H110       29.3471  -45.1656  -51.8405 H         1 UNK         0.0840 
    111 H111       31.0554  -45.3292  -51.5424 H         1 UNK         0.0840 
    112 H112       29.9077  -49.8372  -53.2641 H         1 UNK         0.2987 
    113 H113       30.4074  -52.2849  -54.6169 H         1 UNK         0.0785 
    114 H114       32.5104  -52.6352  -55.9589 H         1 UNK         0.0798 
    115 H115       31.1272  -52.2386  -56.9628 H         1 UNK         0.0798 
    116 H116       32.3382  -51.0123  -56.6269 H         1 UNK         0.0798 
    117 H117       31.8455  -51.7223  -53.0234 H         1 UNK         0.3079 
    118 H118       32.9147  -50.2317  -51.6302 H         1 UNK         0.0794 
    119 H119       34.6163  -51.7996  -52.6189 H         1 UNK         0.0786 
    120 H120       35.3973  -50.6356  -51.5611 H         1 UNK         0.0786 
    121 H121       35.4898  -50.4385  -53.3107 H         1 UNK         0.0786 
    122 H122       33.8977  -47.9660  -53.1628 H         1 UNK         0.3032 
    123 H123       33.2971  -45.8637  -51.1373 H         1 UNK         0.1094 
    124 H124       36.0545  -46.3262  -49.8776 H         1 UNK         0.0794 
    125 H125       35.2171  -44.7766  -49.9506 H         1 UNK         0.0794 
    126 H126       34.5469  -46.0891  -49.0017 H         1 UNK         0.0794 
    127 H127       35.6130  -46.6207  -52.7764 H         1 UNK         0.3016 
@<TRIPOS>BOND
     1    1    2 1    
     2    1   67 1    
     3    1   68 1    
     4    1   69 1    
     5    2    3 2    
     6    2    4 am   BACKBONE|DICT|INTERRES
     7    4    5 1    
     8    4   70 1    
     9    5    6 1    
    10    5   65 1    
    11    5   71 1    
    12    6    7 1    
    13    6   72 1    
    14    6   73 1    
    15    7    8 1    
    16    8    9 1    
    17    8   74 1    
    18    8   75 1    
    19    9   10 ar   
    20    9   14 ar   
    21   10   11 ar   
    22   10   76 1    
    23   11   12 ar   
    24   11   48 1    
    25   12   13 ar   
    26   12   77 1    
    27   13   14 ar   
    28   13   15 1    
    29   14   78 1    
    30   15   16 1    
    31   15   79 1    
    32   15   80 1    
    33   16   17 1    
    34   17   18 1    
    35   17   81 1    
    36   17   82 1    
    37   18   19 1    
    38   18   22 1    
    39   18   83 1    
    40   19   20 am   BACKBONE|DICT|INTERRES
    41   19   21 2    
    42   20   84 1    
    43   20   85 1    
    44   22   23 am   BACKBONE|DICT|INTERRES
    45   22   86 1    
    46   23   24 2    
    47   23   25 1    
    48   25   26 1    
    49   25   27 1    
    50   25   87 1    
    51   26   88 1    
    52   26   89 1    
    53   26   90 1    
    54   27   28 am   BACKBONE|DICT|INTERRES
    55   27   91 1    
    56   28   29 2    
    57   28   30 1    
    58   30   31 1    
    59   30   32 1    
    60   30   92 1    
    61   31   93 1    
    62   31   94 1    
    63   31   95 1    
    64   32   33 am   BACKBONE|DICT|INTERRES
    65   32   96 1    
    66   33   34 2    
    67   33   35 1    
    68   35   36 1    
    69   35   37 1    
    70   35   97 1    
    71   36   98 1    
    72   36   99 1    
    73   36  100 1    
    74   37   38 am   BACKBONE|DICT|INTERRES
    75   37  101 1    
    76   38   39 2    
    77   38   40 1    
    78   40   41 1    
    79   40   42 1    
    80   40  102 1    
    81   41  103 1    
    82   41  104 1    
    83   41  105 1    
    84   42   43 am   BACKBONE|DICT|INTERRES
    85   42  106 1    
    86   43   44 2    
    87   43   45 1    
    88   45   46 1    
    89   45   49 1    
    90   45  107 1    
    91   46   47 1    
    92   46  108 1    
    93   46  109 1    
    94   47   48 1    
    95   48  110 1    
    96   48  111 1    
    97   49   50 am   BACKBONE|DICT|INTERRES
    98   49  112 1    
    99   50   51 2    
   100   50   52 1    
   101   52   53 1    
   102   52   54 1    
   103   52  113 1    
   104   53  114 1    
   105   53  115 1    
   106   53  116 1    
   107   54   55 am   BACKBONE|DICT|INTERRES
   108   54  117 1    
   109   55   56 2    
   110   55   57 1    
   111   57   58 1    
   112   57   59 1    
   113   57  118 1    
   114   58  119 1    
   115   58  120 1    
   116   58  121 1    
   117   59   60 am   BACKBONE|DICT|INTERRES
   118   59  122 1    
   119   60   61 2    
   120   60   62 1    
   121   62   63 1    
   122   62   64 1    
   123   62  123 1    
   124   63  124 1    
   125   63  125 1    
   126   63  126 1    
   127   64   65 am   BACKBONE|DICT|INTERRES
   128   64  127 1    
   129   65   66 2    
@<TRIPOS>SUBSTRUCTURE
     1 UNK         1 GROUP             0       ****    0 ROOT    
