@<TRIPOS>MOLECULE
3R134
127   129    1
SMALL
USER_CHARGES


@<TRIPOS>ATOM
      1 CA         37.9489  -47.7755  -52.2537 C.3       0 UNK        -0.1968 
      2 C          36.6442  -47.5491  -53.0019 C.2       0 UNK         0.4852 
      3 O          35.9735  -48.5151  -53.3704 O.2       0 UNK        -0.5359 
      4 N          36.2613  -46.2803  -53.2110 N.am      1 UNK        -0.4300 
      5 CA         35.0563  -45.8690  -53.9475 C.3       1 UNK         0.0863 
      6 C6         35.0849  -44.3622  -54.2987 C.3       11 UNK        -0.0953 
      7 S7         34.8704  -43.2456  -52.8671 S.3       11 UNK        -0.2369 
      8 C8         33.7523  -41.9752  -53.5448 C.3       11 UNK         0.0226 
      9 C9         32.3696  -42.5226  -53.8766 C.ar      11 UNK        -0.0699 
     10 C10        31.4365  -42.7479  -52.8604 C.ar      11 UNK        -0.0804 
     11 C11        30.1566  -43.2309  -53.1566 C.ar      11 UNK        -0.0871 
     12 C12        29.8167  -43.4839  -54.4922 C.ar      11 UNK        -0.1008 
     13 C13        30.7471  -43.2789  -55.5147 C.ar      11 UNK        -0.0735 
     14 C14        32.0160  -42.7866  -55.2028 C.ar      11 UNK        -0.0945 
     15 C15        30.3899  -43.6051  -56.9547 C.3       11 UNK         0.0169 
     16 S16        29.7203  -42.1505  -57.8163 S.3       11 UNK        -0.2669 
     17 C17        29.3185  -42.8789  -59.4399 C.3       11 UNK        -0.0850 
     18 CA         27.7955  -43.1847  -59.5944 C.3       10 UNK         0.0855 
     19 C          27.0721  -42.2630  -60.6192 C.2       10 UNK         0.5543 
     20 N          26.1391  -42.7673  -61.4188 N.am      10 UNK        -0.7343 
     21 O          27.3449  -41.0669  -60.6839 O.2       10 UNK        -0.5027 
     22 N          27.5588  -44.6188  -59.8283 N.am      10 UNK        -0.4495 
     23 C          27.3393  -45.5225  -58.8685 C.2       10 UNK         0.4903 
     24 O          27.2782  -45.2506  -57.6669 O.2       10 UNK        -0.4860 
     25 CA         27.1878  -46.9783  -59.3401 C.3       9 UNK         0.0227 
     26 CB         28.5431  -47.5595  -59.7775 C.3       9 UNK        -0.1964 
     27 N          26.6507  -47.8016  -58.2591 N.am      9 UNK        -0.4231 
     28 C          25.3465  -47.9736  -58.0084 C.2       9 UNK         0.5014 
     29 O          24.4502  -47.5647  -58.7505 O.2       9 UNK        -0.5270 
     30 CA         24.9827  -48.6979  -56.6974 C.3       8 UNK         0.0284 
     31 CB         23.5600  -49.2983  -56.7061 C.3       8 UNK        -0.1977 
     32 N          25.9796  -49.6927  -56.2864 N.am      8 UNK        -0.4342 
     33 C          26.3164  -50.8293  -56.9165 C.2       8 UNK         0.5039 
     34 O          25.7808  -51.2202  -57.9548 O.2       8 UNK        -0.5547 
     35 CA         27.4497  -51.6811  -56.3065 C.3       7 UNK         0.0281 
     36 CB         28.6453  -51.7572  -57.2714 C.3       7 UNK        -0.1963 
     37 N          27.9194  -51.2014  -55.0029 N.am      7 UNK        -0.4444 
     38 C          27.2516  -51.3342  -53.8487 C.2       7 UNK         0.5104 
     39 O          26.1931  -51.9530  -53.7378 O.2       7 UNK        -0.5100 
     40 CA         27.8384  -50.6172  -52.6196 C.3       6 UNK         0.0396 
     41 CB         28.8434  -51.5260  -51.8955 C.3       6 UNK        -0.1801 
     42 N          28.4773  -49.3353  -52.9380 N.am      6 UNK        -0.4747 
     43 C          27.8564  -48.2666  -53.4618 C.2       6 UNK         0.5012 
     44 O          26.6555  -48.2415  -53.7311 O.2       6 UNK        -0.5003 
     45 CA         28.7401  -47.0480  -53.8024 C.3       5 UNK         0.0782 
     46 C46        29.1350  -46.2498  -52.5310 C.3       11 UNK        -0.0868 
     47 S47        28.0050  -44.8486  -52.2437 S.3       11 UNK        -0.2515 
     48 C48        29.1656  -43.4541  -52.0128 C.3       11 UNK         0.0199 
     49 N          29.9096  -47.4324  -54.5951 N.am      5 UNK        -0.4607 
     50 C          29.8632  -48.0186  -55.7991 C.2       4 UNK         0.5031 
     51 O          28.8235  -48.2419  -56.4189 O.2       4 UNK        -0.5119 
     52 CA         31.2052  -48.4908  -56.3787 C.3       4 UNK         0.0263 
     53 CB         31.9212  -47.3455  -57.1151 C.3       4 UNK        -0.1967 
     54 N          32.0754  -49.0446  -55.3361 N.am      4 UNK        -0.4237 
     55 C          31.8308  -50.1908  -54.6816 C.2       3 UNK         0.4908 
     56 O          30.8888  -50.9379  -54.9434 O.2       3 UNK        -0.5102 
     57 CA         32.7617  -50.5413  -53.5079 C.3       3 UNK         0.0241 
     58 CB         34.0411  -51.2243  -54.0151 C.3       3 UNK        -0.1971 
     59 N          33.1090  -49.3720  -52.6954 N.am      3 UNK        -0.4139 
     60 C          32.2262  -48.6878  -51.9485 C.2       2 UNK         0.5016 
     61 O          31.0507  -49.0216  -51.8116 O.2       2 UNK        -0.5319 
     62 CA         32.7060  -47.3853  -51.2795 C.3       2 UNK         0.0286 
     63 CB         33.1619  -47.6596  -49.8384 C.3       2 UNK        -0.1963 
     64 N          33.7836  -46.7135  -52.0080 N.am      2 UNK        -0.4790 
     65 C          33.7285  -46.3141  -53.2881 C.2       1 UNK         0.5024 
     66 O          32.7002  -46.3642  -53.9631 O.2       1 UNK        -0.4888 
     67 H67        38.4287  -46.8371  -51.9763 H         1 UNK         0.0892 
     68 H68        37.7651  -48.3456  -51.3435 H         1 UNK         0.0892 
     69 H69        38.6427  -48.3406  -52.8755 H         1 UNK         0.0892 
     70 H70        36.8354  -45.5236  -52.8656 H         1 UNK         0.3107 
     71 H71        35.0936  -46.4061  -54.8979 H         1 UNK         0.0773 
     72 H72        34.3225  -44.1591  -55.0490 H         1 UNK         0.0680 
     73 H73        36.0305  -44.1119  -54.7821 H         1 UNK         0.0680 
     74 H74        33.6550  -41.1703  -52.8149 H         1 UNK         0.0650 
     75 H75        34.2125  -41.5290  -54.4279 H         1 UNK         0.0650 
     76 H76        31.7121  -42.5431  -51.8348 H         1 UNK         0.1397 
     77 H77        28.8310  -43.8510  -54.7425 H         1 UNK         0.1363 
     78 H78        32.7302  -42.6141  -55.9962 H         1 UNK         0.1355 
     79 H79        31.2729  -43.9673  -57.4838 H         1 UNK         0.0707 
     80 H80        29.6632  -44.4174  -56.9808 H         1 UNK         0.0707 
     81 H81        29.9177  -43.7798  -59.5826 H         1 UNK         0.1034 
     82 H82        29.6770  -42.1922  -60.2092 H         1 UNK         0.1034 
     83 H83        27.2918  -42.9261  -58.6611 H         1 UNK         0.0482 
     84 H84        25.8538  -43.7302  -61.3430 H         1 UNK         0.3460 
     85 H85        25.6753  -42.1575  -62.0743 H         1 UNK         0.3460 
     86 H86        27.5976  -44.9174  -60.7928 H         1 UNK         0.2989 
     87 H87        26.5077  -47.0008  -60.1942 H         1 UNK         0.0559 
     88 H88        29.2764  -47.5191  -58.9733 H         1 UNK         0.0848 
     89 H89        28.9571  -47.0101  -60.6236 H         1 UNK         0.0848 
     90 H90        28.4456  -48.6006  -60.0858 H         1 UNK         0.0848 
     91 H91        27.3244  -48.0920  -57.5527 H         1 UNK         0.3144 
     92 H92        25.0019  -47.9274  -55.9255 H         1 UNK         0.0727 
     93 H93        23.4315  -50.0266  -57.5072 H         1 UNK         0.0790 
     94 H94        22.8090  -48.5211  -56.8521 H         1 UNK         0.0790 
     95 H95        23.3330  -49.7929  -55.7617 H         1 UNK         0.0790 
     96 H96        26.4929  -49.4496  -55.4460 H         1 UNK         0.3215 
     97 H97        27.0556  -52.6910  -56.1753 H         1 UNK         0.0863 
     98 H98        29.0689  -50.7717  -57.4644 H         1 UNK         0.0808 
     99 H99        28.3473  -52.1765  -58.2332 H         1 UNK         0.0808 
    100 H100       29.4377  -52.3919  -56.8744 H         1 UNK         0.0808 
    101 H101       28.8241  -50.7410  -54.9866 H         1 UNK         0.3118 
    102 H102       27.0137  -50.4096  -51.9348 H         1 UNK         0.0546 
    103 H103       29.2067  -51.0634  -50.9776 H         1 UNK         0.0828 
    104 H104       29.7080  -51.7492  -52.5213 H         1 UNK         0.0828 
    105 H105       28.3844  -52.4764  -51.6203 H         1 UNK         0.0828 
    106 H106       29.4650  -49.2525  -52.6985 H         1 UNK         0.3005 
    107 H107       28.1473  -46.4055  -54.4586 H         1 UNK         0.1257 
    108 H108       30.1473  -45.8591  -52.6345 H         1 UNK         0.0775 
    109 H109       29.1633  -46.8740  -51.6355 H         1 UNK         0.0775 
    110 H110       28.5864  -42.5404  -51.8744 H         1 UNK         0.0840 
    111 H111       29.7046  -43.6201  -51.0785 H         1 UNK         0.0840 
    112 H112       30.8194  -47.2408  -54.1915 H         1 UNK         0.2987 
    113 H113       30.9987  -49.2823  -57.1020 H         1 UNK         0.0785 
    114 H114       32.8723  -47.6753  -57.5330 H         1 UNK         0.0798 
    115 H115       31.3168  -46.9757  -57.9433 H         1 UNK         0.0798 
    116 H116       32.1178  -46.4951  -56.4625 H         1 UNK         0.0798 
    117 H117       32.8356  -48.4585  -55.0213 H         1 UNK         0.3079 
    118 H118       32.2322  -51.2484  -52.8658 H         1 UNK         0.0794 
    119 H119       34.6831  -51.5276  -53.1878 H         1 UNK         0.0786 
    120 H120       34.6215  -50.5672  -54.6641 H         1 UNK         0.0786 
    121 H121       33.8031  -52.1219  -54.5875 H         1 UNK         0.0786 
    122 H122       34.0621  -49.0291  -52.7721 H         1 UNK         0.3032 
    123 H123       31.8561  -46.7020  -51.2448 H         1 UNK         0.1094 
    124 H124       32.3684  -48.1400  -49.2639 H         1 UNK         0.0794 
    125 H125       34.0312  -48.3178  -49.8075 H         1 UNK         0.0794 
    126 H126       33.4197  -46.7356  -49.3204 H         1 UNK         0.0794 
    127 H127       34.6707  -46.6322  -51.5331 H         1 UNK         0.3016 
@<TRIPOS>BOND
     1    1    2 1    
     2    1   67 1    
     3    1   68 1    
     4    1   69 1    
     5    2    3 2    
     6    2    4 am   BACKBONE|DICT|INTERRES
     7    4    5 1    
     8    4   70 1    
     9    5    6 1    
    10    5   65 1    
    11    5   71 1    
    12    6    7 1    
    13    6   72 1    
    14    6   73 1    
    15    7    8 1    
    16    8    9 1    
    17    8   74 1    
    18    8   75 1    
    19    9   10 ar   
    20    9   14 ar   
    21   10   11 ar   
    22   10   76 1    
    23   11   12 ar   
    24   11   48 1    
    25   12   13 ar   
    26   12   77 1    
    27   13   14 ar   
    28   13   15 1    
    29   14   78 1    
    30   15   16 1    
    31   15   79 1    
    32   15   80 1    
    33   16   17 1    
    34   17   18 1    
    35   17   81 1    
    36   17   82 1    
    37   18   19 1    
    38   18   22 1    
    39   18   83 1    
    40   19   20 am   BACKBONE|DICT|INTERRES
    41   19   21 2    
    42   20   84 1    
    43   20   85 1    
    44   22   23 am   BACKBONE|DICT|INTERRES
    45   22   86 1    
    46   23   24 2    
    47   23   25 1    
    48   25   26 1    
    49   25   27 1    
    50   25   87 1    
    51   26   88 1    
    52   26   89 1    
    53   26   90 1    
    54   27   28 am   BACKBONE|DICT|INTERRES
    55   27   91 1    
    56   28   29 2    
    57   28   30 1    
    58   30   31 1    
    59   30   32 1    
    60   30   92 1    
    61   31   93 1    
    62   31   94 1    
    63   31   95 1    
    64   32   33 am   BACKBONE|DICT|INTERRES
    65   32   96 1    
    66   33   34 2    
    67   33   35 1    
    68   35   36 1    
    69   35   37 1    
    70   35   97 1    
    71   36   98 1    
    72   36   99 1    
    73   36  100 1    
    74   37   38 am   BACKBONE|DICT|INTERRES
    75   37  101 1    
    76   38   39 2    
    77   38   40 1    
    78   40   41 1    
    79   40   42 1    
    80   40  102 1    
    81   41  103 1    
    82   41  104 1    
    83   41  105 1    
    84   42   43 am   BACKBONE|DICT|INTERRES
    85   42  106 1    
    86   43   44 2    
    87   43   45 1    
    88   45   46 1    
    89   45   49 1    
    90   45  107 1    
    91   46   47 1    
    92   46  108 1    
    93   46  109 1    
    94   47   48 1    
    95   48  110 1    
    96   48  111 1    
    97   49   50 am   BACKBONE|DICT|INTERRES
    98   49  112 1    
    99   50   51 2    
   100   50   52 1    
   101   52   53 1    
   102   52   54 1    
   103   52  113 1    
   104   53  114 1    
   105   53  115 1    
   106   53  116 1    
   107   54   55 am   BACKBONE|DICT|INTERRES
   108   54  117 1    
   109   55   56 2    
   110   55   57 1    
   111   57   58 1    
   112   57   59 1    
   113   57  118 1    
   114   58  119 1    
   115   58  120 1    
   116   58  121 1    
   117   59   60 am   BACKBONE|DICT|INTERRES
   118   59  122 1    
   119   60   61 2    
   120   60   62 1    
   121   62   63 1    
   122   62   64 1    
   123   62  123 1    
   124   63  124 1    
   125   63  125 1    
   126   63  126 1    
   127   64   65 am   BACKBONE|DICT|INTERRES
   128   64  127 1    
   129   65   66 2    
@<TRIPOS>SUBSTRUCTURE
     1 UNK         1 GROUP             0       ****    0 ROOT    
