@<TRIPOS>MOLECULE
3R134
127   129    1
SMALL
USER_CHARGES


@<TRIPOS>ATOM
      1 CA         31.4651  -47.3374  -51.5247 C.3       0 UNK        -0.1968 
      2 C          32.5005  -46.3499  -52.0278 C.2       0 UNK         0.4852 
      3 O          32.9625  -46.4714  -53.1626 O.2       0 UNK        -0.5359 
      4 N          32.8698  -45.3809  -51.1801 N.am      1 UNK        -0.4300 
      5 CA         33.8169  -44.2938  -51.4497 C.3       1 UNK         0.0863 
      6 C6         33.2763  -43.2440  -52.4633 C.3       11 UNK        -0.0953 
      7 S7         31.6835  -42.5205  -51.9322 S.3       11 UNK        -0.2369 
      8 C8         30.7302  -42.4594  -53.4859 C.3       11 UNK         0.0226 
      9 C9         30.3001  -43.8376  -53.9714 C.ar      11 UNK        -0.0699 
     10 C10        29.1685  -44.4610  -53.4327 C.ar      11 UNK        -0.0804 
     11 C11        28.7594  -45.7166  -53.8976 C.ar      11 UNK        -0.0871 
     12 C12        29.4986  -46.3458  -54.9051 C.ar      11 UNK        -0.1008 
     13 C13        30.6501  -45.7518  -55.4224 C.ar      11 UNK        -0.0735 
     14 C14        31.0307  -44.4869  -54.9704 C.ar      11 UNK        -0.0945 
     15 C15        31.5335  -46.5093  -56.4023 C.3       11 UNK         0.0169 
     16 S16        31.5197  -45.7912  -58.0716 S.3       11 UNK        -0.2669 
     17 C17        29.9868  -46.4733  -58.7911 C.3       11 UNK        -0.0850 
     18 CA         28.9872  -45.3457  -59.1581 C.3       10 UNK         0.0855 
     19 C          27.9746  -45.7840  -60.2579 C.2       10 UNK         0.5543 
     20 N          26.6715  -45.5839  -60.1040 N.am      10 UNK        -0.7343 
     21 O          28.3837  -46.3022  -61.2939 O.2       10 UNK        -0.5027 
     22 N          28.3601  -44.7872  -57.9523 N.am      10 UNK        -0.4495 
     23 C          27.9976  -43.5087  -57.7969 C.2       10 UNK         0.4903 
     24 O          28.2358  -42.6234  -58.6205 O.2       10 UNK        -0.4860 
     25 CA         27.2159  -43.1726  -56.5085 C.3       9 UNK         0.0227 
     26 CB         26.4472  -41.8381  -56.6091 C.3       9 UNK        -0.1964 
     27 N          26.3150  -44.2496  -56.0700 N.am      9 UNK        -0.4231 
     28 C          25.3428  -44.8292  -56.7900 C.2       9 UNK         0.5014 
     29 O          25.0543  -44.5179  -57.9474 O.2       9 UNK        -0.5270 
     30 CA         24.5677  -45.9673  -56.1101 C.3       8 UNK         0.0284 
     31 CB         23.1013  -45.5665  -55.8792 C.3       8 UNK        -0.1977 
     32 N          24.6186  -47.1946  -56.9076 N.am      8 UNK        -0.4342 
     33 C          25.7239  -47.9175  -57.1246 C.2       8 UNK         0.5039 
     34 O          26.8385  -47.6313  -56.6730 O.2       8 UNK        -0.5547 
     35 CA         25.5609  -49.1859  -57.9713 C.3       7 UNK         0.0281 
     36 CB         25.7935  -48.9055  -59.4641 C.3       7 UNK        -0.1963 
     37 N          26.5479  -50.1393  -57.4881 N.am      7 UNK        -0.4444 
     38 C          26.4087  -51.4669  -57.4033 C.2       7 UNK         0.5104 
     39 O          25.4660  -52.0943  -57.8865 O.2       7 UNK        -0.5100 
     40 CA         27.4960  -52.2150  -56.6051 C.3       6 UNK         0.0396 
     41 CB         28.5942  -52.7381  -57.5437 C.3       6 UNK        -0.1801 
     42 N          28.1028  -51.3624  -55.5775 N.am      6 UNK        -0.4747 
     43 C          27.4763  -50.9320  -54.4731 C.2       6 UNK         0.5012 
     44 O          26.3989  -51.3819  -54.0798 O.2       6 UNK        -0.5003 
     45 CA         28.1615  -49.7753  -53.7210 C.3       5 UNK         0.0782 
     46 C46        27.2634  -49.1313  -52.6348 C.3       11 UNK        -0.0868 
     47 S47        27.9611  -47.5716  -51.9920 S.3       11 UNK        -0.2515 
     48 C48        27.5255  -46.3923  -53.3122 C.3       11 UNK         0.0199 
     49 N          29.4836  -50.1608  -53.2149 N.am      5 UNK        -0.4607 
     50 C          30.5977  -50.2078  -53.9543 C.2       4 UNK         0.5031 
     51 O          30.6253  -49.9692  -55.1653 O.2       4 UNK        -0.5119 
     52 CA         31.8848  -50.6194  -53.2335 C.3       4 UNK         0.0263 
     53 CB         32.0243  -52.1506  -53.1951 C.3       4 UNK        -0.1967 
     54 N          33.0188  -50.0437  -53.9500 N.am      4 UNK        -0.4237 
     55 C          34.1257  -49.5376  -53.3944 C.2       3 UNK         0.4908 
     56 O          34.3406  -49.5357  -52.1808 O.2       3 UNK        -0.5102 
     57 CA         35.1880  -48.9508  -54.3386 C.3       3 UNK         0.0241 
     58 CB         34.8361  -49.0336  -55.8405 C.3       3 UNK        -0.1971 
     59 N          35.4522  -47.5592  -53.9723 N.am      3 UNK        -0.4139 
     60 C          36.6598  -46.9779  -53.9915 C.2       2 UNK         0.5016 
     61 O          37.6952  -47.5799  -54.2830 O.2       2 UNK        -0.5319 
     62 CA         36.7577  -45.4736  -53.6663 C.3       2 UNK         0.0286 
     63 CB         37.1339  -44.6790  -54.9290 C.3       2 UNK        -0.1963 
     64 N          35.5226  -44.9104  -53.1191 N.am      2 UNK        -0.4790 
     65 C          35.2073  -44.8606  -51.8182 C.2       1 UNK         0.5024 
     66 O          35.9532  -45.2552  -50.9204 O.2       1 UNK        -0.4888 
     67 H67        31.9540  -48.1831  -51.0436 H         1 UNK         0.0892 
     68 H68        30.7852  -46.8739  -50.8103 H         1 UNK         0.0892 
     69 H69        30.8737  -47.7028  -52.3621 H         1 UNK         0.0892 
     70 H70        32.4650  -45.3664  -50.2549 H         1 UNK         0.3107 
     71 H71        33.9528  -43.7772  -50.4981 H         1 UNK         0.0773 
     72 H72        33.1570  -43.6861  -53.4506 H         1 UNK         0.0680 
     73 H73        33.9898  -42.4262  -52.5788 H         1 UNK         0.0680 
     74 H74        31.3195  -41.9495  -54.2496 H         1 UNK         0.0650 
     75 H75        29.8447  -41.8426  -53.3265 H         1 UNK         0.0650 
     76 H76        28.6084  -43.9662  -52.6510 H         1 UNK         0.1397 
     77 H77        29.2033  -47.3115  -55.2799 H         1 UNK         0.1363 
     78 H78        31.9164  -44.0239  -55.3820 H         1 UNK         0.1355 
     79 H79        32.5570  -46.4831  -56.0261 H         1 UNK         0.0707 
     80 H80        31.2593  -47.5644  -56.4494 H         1 UNK         0.0707 
     81 H81        30.2858  -47.0409  -59.6742 H         1 UNK         0.1034 
     82 H82        29.5246  -47.1949  -58.1147 H         1 UNK         0.1034 
     83 H83        29.5644  -44.5523  -59.6369 H         1 UNK         0.0482 
     84 H84        26.0482  -45.8607  -60.8444 H         1 UNK         0.3460 
     85 H85        26.2930  -45.1386  -59.2736 H         1 UNK         0.3460 
     86 H86        28.1020  -45.4558  -57.2393 H         1 UNK         0.2989 
     87 H87        27.9658  -43.0610  -55.7249 H         1 UNK         0.0559 
     88 H88        27.1256  -41.0084  -56.8118 H         1 UNK         0.0848 
     89 H89        25.9271  -41.6079  -55.6794 H         1 UNK         0.0848 
     90 H90        25.7085  -41.8581  -57.4112 H         1 UNK         0.0848 
     91 H91        26.4880  -44.5978  -55.1386 H         1 UNK         0.3144 
     92 H92        25.0141  -46.1779  -55.1373 H         1 UNK         0.0727 
     93 H93        22.5841  -45.3650  -56.8184 H         1 UNK         0.0790 
     94 H94        23.0355  -44.6627  -55.2718 H         1 UNK         0.0790 
     95 H95        22.5527  -46.3488  -55.3542 H         1 UNK         0.0790 
     96 H96        23.7561  -47.4778  -57.3499 H         1 UNK         0.3215 
     97 H97        24.5561  -49.5871  -57.8209 H         1 UNK         0.0863 
     98 H98        25.6585  -49.8075  -60.0611 H         1 UNK         0.0808 
     99 H99        26.8008  -48.5314  -59.6492 H         1 UNK         0.0808 
    100 H100       25.0910  -48.1597  -59.8376 H         1 UNK         0.0808 
    101 H101       27.3341  -49.6976  -57.0284 H         1 UNK         0.3118 
    102 H102       27.0257  -53.0693  -56.1136 H         1 UNK         0.0546 
    103 H103       29.1082  -51.9254  -58.0586 H         1 UNK         0.0828 
    104 H104       28.1737  -53.3938  -58.3074 H         1 UNK         0.0828 
    105 H105       29.3409  -53.3150  -56.9979 H         1 UNK         0.0828 
    106 H106       29.0168  -50.9670  -55.7816 H         1 UNK         0.3005 
    107 H107       28.2978  -49.0162  -54.4870 H         1 UNK         0.1257 
    108 H108       27.1238  -49.8190  -51.7989 H         1 UNK         0.0775 
    109 H109       26.2644  -48.9220  -53.0230 H         1 UNK         0.0775 
    110 H110       26.9818  -46.9027  -54.1064 H         1 UNK         0.0840 
    111 H111       26.8405  -45.6480  -52.9036 H         1 UNK         0.0840 
    112 H112       29.5281  -50.4031  -52.2356 H         1 UNK         0.2987 
    113 H113       31.8506  -50.2347  -52.2130 H         1 UNK         0.0785 
    114 H114       31.1886  -52.6088  -52.6647 H         1 UNK         0.0798 
    115 H115       32.9375  -52.4510  -52.6810 H         1 UNK         0.0798 
    116 H116       32.0494  -52.5782  -54.1984 H         1 UNK         0.0798 
    117 H117       32.8719  -49.9425  -54.9463 H         1 UNK         0.3079 
    118 H118       36.0867  -49.5482  -54.1711 H         1 UNK         0.0794 
    119 H119       35.6485  -48.6417  -56.4529 H         1 UNK         0.0786 
    120 H120       33.9399  -48.4619  -56.0822 H         1 UNK         0.0786 
    121 H121       34.6746  -50.0653  -56.1557 H         1 UNK         0.0786 
    122 H122       34.6375  -47.0261  -53.6661 H         1 UNK         0.3032 
    123 H123       37.5637  -45.3554  -52.9382 H         1 UNK         0.1094 
    124 H124       36.3725  -44.7693  -55.7049 H         1 UNK         0.0794 
    125 H125       37.2647  -43.6197  -54.7072 H         1 UNK         0.0794 
    126 H126       38.0737  -45.0370  -55.3520 H         1 UNK         0.0794 
    127 H127       34.8209  -44.6257  -53.7877 H         1 UNK         0.3016 
@<TRIPOS>BOND
     1    1    2 1    
     2    1   67 1    
     3    1   68 1    
     4    1   69 1    
     5    2    3 2    
     6    2    4 am   BACKBONE|DICT|INTERRES
     7    4    5 1    
     8    4   70 1    
     9    5    6 1    
    10    5   65 1    
    11    5   71 1    
    12    6    7 1    
    13    6   72 1    
    14    6   73 1    
    15    7    8 1    
    16    8    9 1    
    17    8   74 1    
    18    8   75 1    
    19    9   10 ar   
    20    9   14 ar   
    21   10   11 ar   
    22   10   76 1    
    23   11   12 ar   
    24   11   48 1    
    25   12   13 ar   
    26   12   77 1    
    27   13   14 ar   
    28   13   15 1    
    29   14   78 1    
    30   15   16 1    
    31   15   79 1    
    32   15   80 1    
    33   16   17 1    
    34   17   18 1    
    35   17   81 1    
    36   17   82 1    
    37   18   19 1    
    38   18   22 1    
    39   18   83 1    
    40   19   20 am   BACKBONE|DICT|INTERRES
    41   19   21 2    
    42   20   84 1    
    43   20   85 1    
    44   22   23 am   BACKBONE|DICT|INTERRES
    45   22   86 1    
    46   23   24 2    
    47   23   25 1    
    48   25   26 1    
    49   25   27 1    
    50   25   87 1    
    51   26   88 1    
    52   26   89 1    
    53   26   90 1    
    54   27   28 am   BACKBONE|DICT|INTERRES
    55   27   91 1    
    56   28   29 2    
    57   28   30 1    
    58   30   31 1    
    59   30   32 1    
    60   30   92 1    
    61   31   93 1    
    62   31   94 1    
    63   31   95 1    
    64   32   33 am   BACKBONE|DICT|INTERRES
    65   32   96 1    
    66   33   34 2    
    67   33   35 1    
    68   35   36 1    
    69   35   37 1    
    70   35   97 1    
    71   36   98 1    
    72   36   99 1    
    73   36  100 1    
    74   37   38 am   BACKBONE|DICT|INTERRES
    75   37  101 1    
    76   38   39 2    
    77   38   40 1    
    78   40   41 1    
    79   40   42 1    
    80   40  102 1    
    81   41  103 1    
    82   41  104 1    
    83   41  105 1    
    84   42   43 am   BACKBONE|DICT|INTERRES
    85   42  106 1    
    86   43   44 2    
    87   43   45 1    
    88   45   46 1    
    89   45   49 1    
    90   45  107 1    
    91   46   47 1    
    92   46  108 1    
    93   46  109 1    
    94   47   48 1    
    95   48  110 1    
    96   48  111 1    
    97   49   50 am   BACKBONE|DICT|INTERRES
    98   49  112 1    
    99   50   51 2    
   100   50   52 1    
   101   52   53 1    
   102   52   54 1    
   103   52  113 1    
   104   53  114 1    
   105   53  115 1    
   106   53  116 1    
   107   54   55 am   BACKBONE|DICT|INTERRES
   108   54  117 1    
   109   55   56 2    
   110   55   57 1    
   111   57   58 1    
   112   57   59 1    
   113   57  118 1    
   114   58  119 1    
   115   58  120 1    
   116   58  121 1    
   117   59   60 am   BACKBONE|DICT|INTERRES
   118   59  122 1    
   119   60   61 2    
   120   60   62 1    
   121   62   63 1    
   122   62   64 1    
   123   62  123 1    
   124   63  124 1    
   125   63  125 1    
   126   63  126 1    
   127   64   65 am   BACKBONE|DICT|INTERRES
   128   64  127 1    
   129   65   66 2    
@<TRIPOS>SUBSTRUCTURE
     1 UNK         1 GROUP             0       ****    0 ROOT    
