@<TRIPOS>MOLECULE
3R134
127   129    1
SMALL
USER_CHARGES


@<TRIPOS>ATOM
      1 CA         31.8103  -46.1345  -47.2189 C.3       0 UNK        -0.1968 
      2 C          32.8966  -45.9852  -48.2739 C.2       0 UNK         0.4852 
      3 O          34.0637  -45.7991  -47.9266 O.2       0 UNK        -0.5359 
      4 N          32.5207  -46.0645  -49.5580 N.am      1 UNK        -0.4300 
      5 CA         33.4248  -45.9319  -50.7107 C.3       1 UNK         0.0863 
      6 C6         32.6566  -45.6665  -52.0312 C.3       11 UNK        -0.0953 
      7 S7         31.5378  -44.2303  -51.8967 S.3       11 UNK        -0.2369 
      8 C8         32.4439  -42.9466  -52.8117 C.3       11 UNK         0.0226 
      9 C9         31.9487  -42.8295  -54.2451 C.ar      11 UNK        -0.0699 
     10 C10        32.6560  -43.4174  -55.2999 C.ar      11 UNK        -0.0804 
     11 C11        32.2064  -43.2711  -56.6174 C.ar      11 UNK        -0.0871 
     12 C12        31.0578  -42.5206  -56.8732 C.ar      11 UNK        -0.1008 
     13 C13        30.3187  -41.9690  -55.8260 C.ar      11 UNK        -0.0735 
     14 C14        30.7750  -42.1170  -54.5137 C.ar      11 UNK        -0.0945 
     15 C15        29.0182  -41.2356  -56.1156 C.3       11 UNK         0.0169 
     16 S16        27.6238  -42.3992  -56.2689 S.3       11 UNK        -0.2669 
     17 C17        27.9838  -43.1915  -57.8772 C.3       11 UNK        -0.0850 
     18 CA         26.7161  -43.7747  -58.5510 C.3       10 UNK         0.0855 
     19 C          26.9756  -44.2073  -60.0253 C.2       10 UNK         0.5543 
     20 N          26.4806  -45.3490  -60.4903 N.am      10 UNK        -0.7343 
     21 O          27.6241  -43.4820  -60.7755 O.2       10 UNK        -0.5027 
     22 N          26.1243  -44.8421  -57.7318 N.am      10 UNK        -0.4495 
     23 C          24.8138  -45.0017  -57.5169 C.2       10 UNK         0.4903 
     24 O          23.9492  -44.2241  -57.9256 O.2       10 UNK        -0.4860 
     25 CA         24.4082  -46.2606  -56.7277 C.3       9 UNK         0.0227 
     26 CB         22.8871  -46.5219  -56.7476 C.3       9 UNK        -0.1964 
     27 N          25.1415  -47.4606  -57.1497 N.am      9 UNK        -0.4231 
     28 C          25.1891  -47.9970  -58.3809 C.2       9 UNK         0.5014 
     29 O          24.6201  -47.5051  -59.3565 O.2       9 UNK        -0.5270 
     30 CA         26.0317  -49.2721  -58.5928 C.3       8 UNK         0.0284 
     31 CB         27.1432  -49.0151  -59.6257 C.3       8 UNK        -0.1977 
     32 N          26.6452  -49.7924  -57.3706 N.am      8 UNK        -0.4342 
     33 C          26.0090  -50.4203  -56.3738 C.2       8 UNK         0.5039 
     34 O          24.8180  -50.7300  -56.4048 O.2       8 UNK        -0.5547 
     35 CA         26.8339  -50.6865  -55.1018 C.3       7 UNK         0.0281 
     36 CB         27.5692  -52.0327  -55.1999 C.3       7 UNK        -0.1963 
     37 N          27.7919  -49.6096  -54.8132 N.am      7 UNK        -0.4444 
     38 C          27.4461  -48.3504  -54.5038 C.2       7 UNK         0.5104 
     39 O          26.2805  -47.9690  -54.4071 O.2       7 UNK        -0.5100 
     40 CA         28.5828  -47.3368  -54.3041 C.3       6 UNK         0.0396 
     41 CB         29.1263  -47.4112  -52.8703 C.3       6 UNK        -0.1801 
     42 N          29.6737  -47.5236  -55.2623 N.am      6 UNK        -0.4747 
     43 C          29.6129  -47.1624  -56.5550 C.2       6 UNK         0.5012 
     44 O          28.6389  -46.6026  -57.0638 O.2       6 UNK        -0.5003 
     45 CA         30.8256  -47.5554  -57.4331 C.3       5 UNK         0.0782 
     46 C46        31.9829  -46.5277  -57.3135 C.3       11 UNK        -0.0868 
     47 S47        31.9026  -45.2121  -58.5665 S.3       11 UNK        -0.2515 
     48 C48        32.9352  -43.9318  -57.7777 C.3       11 UNK         0.0199 
     49 N          31.3217  -48.9016  -57.1323 N.am      5 UNK        -0.4607 
     50 C          30.6138  -50.0373  -57.1380 C.2       4 UNK         0.5031 
     51 O          29.4385  -50.1036  -57.4895 O.2       4 UNK        -0.5119 
     52 CA         31.3160  -51.3094  -56.6256 C.3       4 UNK         0.0263 
     53 CB         31.6129  -52.2628  -57.7938 C.3       4 UNK        -0.1967 
     54 N          32.5537  -51.0634  -55.8738 N.am      4 UNK        -0.4237 
     55 C          32.6437  -50.3880  -54.7194 C.2       3 UNK         0.4908 
     56 O          31.6837  -49.8631  -54.1455 O.2       3 UNK        -0.5102 
     57 CA         34.0575  -50.2130  -54.1598 C.3       3 UNK         0.0241 
     58 CB         34.8047  -49.0923  -54.9090 C.3       3 UNK        -0.1971 
     59 N          33.9696  -49.8787  -52.7439 N.am      3 UNK        -0.4139 
     60 C          34.9178  -50.1104  -51.8291 C.2       2 UNK         0.5016 
     61 O          35.9859  -50.6733  -52.0796 O.2       2 UNK        -0.5319 
     62 CA         34.6175  -49.6174  -50.3986 C.3       2 UNK         0.0286 
     63 CB         35.8713  -49.5823  -49.4983 C.3       2 UNK        -0.1963 
     64 N          33.9255  -48.3198  -50.3698 N.am      2 UNK        -0.4790 
     65 C          34.3590  -47.1501  -50.8732 C.2       1 UNK         0.5024 
     66 O          35.4364  -47.0036  -51.4512 O.2       1 UNK        -0.4888 
     67 H67        31.7652  -45.2401  -46.5982 H         1 UNK         0.0892 
     68 H68        32.0273  -46.9861  -46.5747 H         1 UNK         0.0892 
     69 H69        30.8271  -46.2875  -47.6637 H         1 UNK         0.0892 
     70 H70        31.5431  -46.1817  -49.7837 H         1 UNK         0.3107 
     71 H71        34.0674  -45.0685  -50.5233 H         1 UNK         0.0773 
     72 H72        32.0623  -46.5384  -52.3073 H         1 UNK         0.0680 
     73 H73        33.3512  -45.5077  -52.8582 H         1 UNK         0.0680 
     74 H74        32.2981  -41.9925  -52.3032 H         1 UNK         0.0650 
     75 H75        33.5171  -43.1406  -52.7810 H         1 UNK         0.0650 
     76 H76        33.5518  -43.9872  -55.0944 H         1 UNK         0.1397 
     77 H77        30.7183  -42.4047  -57.8927 H         1 UNK         0.1363 
     78 H78        30.2124  -41.6851  -53.6972 H         1 UNK         0.1355 
     79 H79        29.1103  -40.6404  -57.0254 H         1 UNK         0.0707 
     80 H80        28.7996  -40.5303  -55.3123 H         1 UNK         0.0707 
     81 H81        28.7323  -43.9725  -57.7317 H         1 UNK         0.1034 
     82 H82        28.4400  -42.4426  -58.5266 H         1 UNK         0.1034 
     83 H83        26.0020  -42.9531  -58.6299 H         1 UNK         0.0482 
     84 H84        25.8913  -45.9384  -59.9155 H         1 UNK         0.3460 
     85 H85        26.6548  -45.6007  -61.4498 H         1 UNK         0.3460 
     86 H86        26.7765  -45.5380  -57.3873 H         1 UNK         0.2989 
     87 H87        24.6963  -46.0743  -55.6923 H         1 UNK         0.0559 
     88 H88        22.6287  -47.4015  -56.1580 H         1 UNK         0.0848 
     89 H89        22.5162  -46.6768  -57.7614 H         1 UNK         0.0848 
     90 H90        22.3392  -45.6783  -56.3260 H         1 UNK         0.0848 
     91 H91        25.6572  -47.9215  -56.4085 H         1 UNK         0.3144 
     92 H92        25.3629  -50.0379  -58.9907 H         1 UNK         0.0727 
     93 H93        27.7216  -49.9186  -59.8199 H         1 UNK         0.0790 
     94 H94        27.8344  -48.2420  -59.2870 H         1 UNK         0.0790 
     95 H95        26.7284  -48.6869  -60.5797 H         1 UNK         0.0790 
     96 H96        27.6545  -49.6767  -57.2913 H         1 UNK         0.3215 
     97 H97        26.1373  -50.7401  -54.2621 H         1 UNK         0.0863 
     98 H98        28.1637  -52.2310  -54.3079 H         1 UNK         0.0808 
     99 H99        28.2306  -52.0727  -56.0651 H         1 UNK         0.0808 
    100 H100       26.8575  -52.8529  -55.3029 H         1 UNK         0.0808 
    101 H101       28.7736  -49.8316  -54.8908 H         1 UNK         0.3118 
    102 H102       28.1630  -46.3387  -54.4497 H         1 UNK         0.0546 
    103 H103       28.3171  -47.3598  -52.1404 H         1 UNK         0.0828 
    104 H104       29.7894  -46.5733  -52.6657 H         1 UNK         0.0828 
    105 H105       29.6756  -48.3356  -52.6872 H         1 UNK         0.0828 
    106 H106       30.4903  -48.0246  -54.9343 H         1 UNK         0.3005 
    107 H107       30.4730  -47.5864  -58.4666 H         1 UNK         0.1257 
    108 H108       32.9484  -47.0145  -57.4628 H         1 UNK         0.0775 
    109 H109       32.0322  -46.0949  -56.3123 H         1 UNK         0.0775 
    110 H110       33.8801  -44.3709  -57.4537 H         1 UNK         0.0840 
    111 H111       33.1870  -43.1727  -58.5197 H         1 UNK         0.0840 
    112 H112       32.2835  -48.9613  -56.8364 H         1 UNK         0.2987 
    113 H113       30.6200  -51.8067  -55.9479 H         1 UNK         0.0785 
    114 H114       32.3252  -51.8303  -58.4975 H         1 UNK         0.0798 
    115 H115       30.7035  -52.4927  -58.3514 H         1 UNK         0.0798 
    116 H116       32.0200  -53.2105  -57.4408 H         1 UNK         0.0798 
    117 H117       33.3998  -51.4430  -56.2754 H         1 UNK         0.3079 
    118 H118       34.5930  -51.1580  -54.2761 H         1 UNK         0.0794 
    119 H119       34.2911  -48.1343  -54.8157 H         1 UNK         0.0786 
    120 H120       34.8963  -49.3157  -55.9725 H         1 UNK         0.0786 
    121 H121       35.8156  -48.9636  -54.5213 H         1 UNK         0.0786 
    122 H122       33.0892  -49.4651  -52.4638 H         1 UNK         0.3032 
    123 H123       33.9283  -50.3476  -49.9709 H         1 UNK         0.1094 
    124 H124       36.6380  -48.9172  -49.8969 H         1 UNK         0.0794 
    125 H125       35.6268  -49.2457  -48.4908 H         1 UNK         0.0794 
    126 H126       36.3167  -50.5739  -49.4083 H         1 UNK         0.0794 
    127 H127       33.0225  -48.3173  -49.9158 H         1 UNK         0.3016 
@<TRIPOS>BOND
     1    1    2 1    
     2    1   67 1    
     3    1   68 1    
     4    1   69 1    
     5    2    3 2    
     6    2    4 am   BACKBONE|DICT|INTERRES
     7    4    5 1    
     8    4   70 1    
     9    5    6 1    
    10    5   65 1    
    11    5   71 1    
    12    6    7 1    
    13    6   72 1    
    14    6   73 1    
    15    7    8 1    
    16    8    9 1    
    17    8   74 1    
    18    8   75 1    
    19    9   10 ar   
    20    9   14 ar   
    21   10   11 ar   
    22   10   76 1    
    23   11   12 ar   
    24   11   48 1    
    25   12   13 ar   
    26   12   77 1    
    27   13   14 ar   
    28   13   15 1    
    29   14   78 1    
    30   15   16 1    
    31   15   79 1    
    32   15   80 1    
    33   16   17 1    
    34   17   18 1    
    35   17   81 1    
    36   17   82 1    
    37   18   19 1    
    38   18   22 1    
    39   18   83 1    
    40   19   20 am   BACKBONE|DICT|INTERRES
    41   19   21 2    
    42   20   84 1    
    43   20   85 1    
    44   22   23 am   BACKBONE|DICT|INTERRES
    45   22   86 1    
    46   23   24 2    
    47   23   25 1    
    48   25   26 1    
    49   25   27 1    
    50   25   87 1    
    51   26   88 1    
    52   26   89 1    
    53   26   90 1    
    54   27   28 am   BACKBONE|DICT|INTERRES
    55   27   91 1    
    56   28   29 2    
    57   28   30 1    
    58   30   31 1    
    59   30   32 1    
    60   30   92 1    
    61   31   93 1    
    62   31   94 1    
    63   31   95 1    
    64   32   33 am   BACKBONE|DICT|INTERRES
    65   32   96 1    
    66   33   34 2    
    67   33   35 1    
    68   35   36 1    
    69   35   37 1    
    70   35   97 1    
    71   36   98 1    
    72   36   99 1    
    73   36  100 1    
    74   37   38 am   BACKBONE|DICT|INTERRES
    75   37  101 1    
    76   38   39 2    
    77   38   40 1    
    78   40   41 1    
    79   40   42 1    
    80   40  102 1    
    81   41  103 1    
    82   41  104 1    
    83   41  105 1    
    84   42   43 am   BACKBONE|DICT|INTERRES
    85   42  106 1    
    86   43   44 2    
    87   43   45 1    
    88   45   46 1    
    89   45   49 1    
    90   45  107 1    
    91   46   47 1    
    92   46  108 1    
    93   46  109 1    
    94   47   48 1    
    95   48  110 1    
    96   48  111 1    
    97   49   50 am   BACKBONE|DICT|INTERRES
    98   49  112 1    
    99   50   51 2    
   100   50   52 1    
   101   52   53 1    
   102   52   54 1    
   103   52  113 1    
   104   53  114 1    
   105   53  115 1    
   106   53  116 1    
   107   54   55 am   BACKBONE|DICT|INTERRES
   108   54  117 1    
   109   55   56 2    
   110   55   57 1    
   111   57   58 1    
   112   57   59 1    
   113   57  118 1    
   114   58  119 1    
   115   58  120 1    
   116   58  121 1    
   117   59   60 am   BACKBONE|DICT|INTERRES
   118   59  122 1    
   119   60   61 2    
   120   60   62 1    
   121   62   63 1    
   122   62   64 1    
   123   62  123 1    
   124   63  124 1    
   125   63  125 1    
   126   63  126 1    
   127   64   65 am   BACKBONE|DICT|INTERRES
   128   64  127 1    
   129   65   66 2    
@<TRIPOS>SUBSTRUCTURE
     1 UNK         1 GROUP             0       ****    0 ROOT    
