@<TRIPOS>MOLECULE
3R134
127   129    1
SMALL
USER_CHARGES


@<TRIPOS>ATOM
      1 CA         36.1410  -48.7185  -56.5181 C.3       0 UNK        -0.1968 
      2 C          35.4224  -48.0794  -55.3403 C.2       0 UNK         0.4852 
      3 O          34.7557  -48.7825  -54.5809 O.2       0 UNK        -0.5359 
      4 N          35.5729  -46.7592  -55.1668 N.am      1 UNK        -0.4300 
      5 CA         34.9151  -45.9012  -54.1643 C.3       1 UNK         0.0863 
      6 C6         35.3788  -44.4318  -54.3228 C.3       11 UNK        -0.0953 
      7 S7         34.8145  -43.6991  -55.8954 S.3       11 UNK        -0.2369 
      8 C8         33.6466  -42.4268  -55.3152 C.3       11 UNK         0.0226 
      9 C9         32.2906  -43.0081  -54.9358 C.ar      11 UNK        -0.0699 
     10 C10        32.0684  -43.5178  -53.6529 C.ar      11 UNK        -0.0804 
     11 C11        30.8127  -44.0133  -53.2902 C.ar      11 UNK        -0.0871 
     12 C12        29.7668  -43.9841  -54.2181 C.ar      11 UNK        -0.1008 
     13 C13        29.9773  -43.4811  -55.5053 C.ar      11 UNK        -0.0735 
     14 C14        31.2414  -42.9996  -55.8597 C.ar      11 UNK        -0.0945 
     15 C15        28.8400  -43.4468  -56.5127 C.3       11 UNK         0.0169 
     16 S16        27.8118  -41.9653  -56.2854 S.3       11 UNK        -0.2669 
     17 C17        26.9110  -41.8915  -57.8711 C.3       11 UNK        -0.0850 
     18 CA         25.4831  -42.4877  -57.7859 C.3       10 UNK         0.0855 
     19 C          24.6692  -42.1165  -59.0570 C.2       10 UNK         0.5543 
     20 N          23.8489  -41.0772  -58.9877 N.am      10 UNK        -0.7343 
     21 O          24.8147  -42.7284  -60.1130 O.2       10 UNK        -0.5027 
     22 N          25.5244  -43.9379  -57.5450 N.am      10 UNK        -0.4495 
     23 C          24.4622  -44.7148  -57.3005 C.2       10 UNK         0.4903 
     24 O          23.3197  -44.2743  -57.1628 O.2       10 UNK        -0.4860 
     25 CA         24.7003  -46.2312  -57.1377 C.3       9 UNK         0.0227 
     26 CB         23.6225  -47.0659  -57.8607 C.3       9 UNK        -0.1964 
     27 N          26.0447  -46.7125  -57.4880 N.am      9 UNK        -0.4231 
     28 C          26.6380  -46.7182  -58.6925 C.2       9 UNK         0.5014 
     29 O          26.1662  -46.1924  -59.7001 O.2       9 UNK        -0.5270 
     30 CA         27.9823  -47.4607  -58.7930 C.3       8 UNK         0.0284 
     31 CB         29.1339  -46.6182  -58.2219 C.3       8 UNK        -0.1977 
     32 N          27.9519  -48.7604  -58.1213 N.am      8 UNK        -0.4342 
     33 C          27.2157  -49.8109  -58.5118 C.2       8 UNK         0.5039 
     34 O          26.5326  -49.8334  -59.5363 O.2       8 UNK        -0.5547 
     35 CA         27.2304  -51.0393  -57.5901 C.3       7 UNK         0.0281 
     36 CB         28.4833  -51.8982  -57.8312 C.3       7 UNK        -0.1963 
     37 N          27.1572  -50.6454  -56.1819 N.am      7 UNK        -0.4444 
     38 C          26.0257  -50.2882  -55.5584 C.2       7 UNK         0.5104 
     39 O          24.9127  -50.3270  -56.0830 O.2       7 UNK        -0.5100 
     40 CA         26.1474  -49.8077  -54.1011 C.3       6 UNK         0.0396 
     41 CB         25.8837  -50.9701  -53.1310 C.3       6 UNK        -0.1801 
     42 N          27.4454  -49.2039  -53.7880 N.am      6 UNK        -0.4747 
     43 C          27.8569  -48.0085  -54.2353 C.2       6 UNK         0.5012 
     44 O          27.1926  -47.2868  -54.9784 O.2       6 UNK        -0.5003 
     45 CA         29.2715  -47.5668  -53.8136 C.3       5 UNK         0.0782 
     46 C46        29.2296  -46.9865  -52.3795 C.3       11 UNK        -0.0868 
     47 S47        30.8445  -46.3576  -51.8134 S.3       11 UNK        -0.2515 
     48 C48        30.5916  -44.5560  -51.8862 C.3       11 UNK         0.0199 
     49 N          30.2719  -48.6325  -53.9496 N.am      5 UNK        -0.4607 
     50 C          30.5162  -49.3542  -55.0510 C.2       4 UNK         0.5031 
     51 O          29.8688  -49.2322  -56.0913 O.2       4 UNK        -0.5119 
     52 CA         31.6543  -50.3902  -55.0008 C.3       4 UNK         0.0263 
     53 CB         32.4736  -50.3708  -56.3039 C.3       4 UNK        -0.1967 
     54 N          32.5630  -50.2310  -53.8578 N.am      4 UNK        -0.4237 
     55 C          32.3311  -50.7053  -52.6263 C.2       3 UNK         0.4908 
     56 O          31.2671  -51.2372  -52.3077 O.2       3 UNK        -0.5102 
     57 CA         33.4388  -50.5977  -51.5655 C.3       3 UNK         0.0241 
     58 CB         34.1898  -51.9384  -51.4478 C.3       3 UNK        -0.1971 
     59 N          34.4022  -49.5060  -51.7704 N.am      3 UNK        -0.4139 
     60 C          35.0812  -48.9312  -50.7623 C.2       2 UNK         0.5016 
     61 O          34.8965  -49.2082  -49.5756 O.2       2 UNK        -0.5319 
     62 CA         36.1755  -47.8989  -51.1013 C.3       2 UNK         0.0286 
     63 CB         37.5639  -48.5575  -51.0483 C.3       2 UNK        -0.1963 
     64 N          36.0047  -47.2633  -52.4061 N.am      2 UNK        -0.4790 
     65 C          35.0692  -46.3485  -52.6907 C.2       1 UNK         0.5024 
     66 O          34.3336  -45.8554  -51.8359 O.2       1 UNK        -0.4888 
     67 H67        36.8220  -49.4924  -56.1654 H         1 UNK         0.0892 
     68 H68        36.7184  -47.9912  -57.0885 H         1 UNK         0.0892 
     69 H69        35.4189  -49.1812  -57.1900 H         1 UNK         0.0892 
     70 H70        36.1442  -46.2531  -55.8287 H         1 UNK         0.3107 
     71 H71        33.8433  -45.9475  -54.3702 H         1 UNK         0.0773 
     72 H72        36.4683  -44.3730  -54.2893 H         1 UNK         0.0680 
     73 H73        35.0327  -43.8091  -53.4971 H         1 UNK         0.0680 
     74 H74        34.0754  -41.8826  -54.4725 H         1 UNK         0.0650 
     75 H75        33.5213  -41.6901  -56.1102 H         1 UNK         0.0650 
     76 H76        32.8695  -43.5247  -52.9276 H         1 UNK         0.1397 
     77 H77        28.7869  -44.3473  -53.9404 H         1 UNK         0.1363 
     78 H78        31.4046  -42.6014  -56.8519 H         1 UNK         0.1355 
     79 H79        28.2171  -44.3349  -56.4013 H         1 UNK         0.0707 
     80 H80        29.2437  -43.4670  -57.5259 H         1 UNK         0.0707 
     81 H81        27.4880  -42.3748  -58.6618 H         1 UNK         0.1034 
     82 H82        26.8610  -40.8366  -58.1493 H         1 UNK         0.1034 
     83 H83        24.9812  -42.0393  -56.9258 H         1 UNK         0.0482 
     84 H84        23.3258  -40.8096  -59.8070 H         1 UNK         0.3460 
     85 H85        23.7308  -40.5625  -58.1287 H         1 UNK         0.3460 
     86 H86        26.4151  -44.3883  -57.6779 H         1 UNK         0.2989 
     87 H87        24.5973  -46.4281  -56.0696 H         1 UNK         0.0559 
     88 H88        23.6245  -46.8840  -58.9358 H         1 UNK         0.0848 
     89 H89        22.6242  -46.8261  -57.4928 H         1 UNK         0.0848 
     90 H90        23.7759  -48.1335  -57.7008 H         1 UNK         0.0848 
     91 H91        26.5592  -47.1057  -56.7012 H         1 UNK         0.3144 
     92 H92        28.1847  -47.6369  -59.8516 H         1 UNK         0.0727 
     93 H93        30.0958  -47.1033  -58.3898 H         1 UNK         0.0790 
     94 H94        29.0290  -46.4627  -57.1479 H         1 UNK         0.0790 
     95 H95        29.1780  -45.6400  -58.7015 H         1 UNK         0.0790 
     96 H96        28.5476  -48.8676  -57.3015 H         1 UNK         0.3215 
     97 H97        26.3557  -51.6484  -57.8300 H         1 UNK         0.0863 
     98 H98        28.4801  -52.7891  -57.2030 H         1 UNK         0.0808 
     99 H99        29.4031  -51.3492  -57.6298 H         1 UNK         0.0808 
    100 H100       28.5279  -52.2339  -58.8681 H         1 UNK         0.0808 
    101 H101       28.0343  -50.5263  -55.6943 H         1 UNK         0.3118 
    102 H102       25.3758  -49.0513  -53.9412 H         1 UNK         0.0546 
    103 H103       24.9100  -51.4238  -53.3217 H         1 UNK         0.0828 
    104 H104       25.8825  -50.6309  -52.0950 H         1 UNK         0.0828 
    105 H105       26.6334  -51.7565  -53.2274 H         1 UNK         0.0828 
    106 H106       28.0682  -49.7357  -53.1957 H         1 UNK         0.3005 
    107 H107       29.5715  -46.7739  -54.5011 H         1 UNK         0.1257 
    108 H108       28.9130  -47.7523  -51.6685 H         1 UNK         0.0775 
    109 H109       28.4854  -46.1913  -52.3074 H         1 UNK         0.0775 
    110 H110       29.5963  -44.2938  -51.5246 H         1 UNK         0.0840 
    111 H111       31.2915  -44.0846  -51.1944 H         1 UNK         0.0840 
    112 H112       30.8515  -48.7959  -53.1396 H         1 UNK         0.2987 
    113 H113       31.1792  -51.3708  -54.9286 H         1 UNK         0.0785 
    114 H114       31.8581  -50.6504  -57.1598 H         1 UNK         0.0798 
    115 H115       33.3067  -51.0727  -56.2637 H         1 UNK         0.0798 
    116 H116       32.8772  -49.3788  -56.5080 H         1 UNK         0.0798 
    117 H117       33.4412  -49.7561  -54.0687 H         1 UNK         0.3079 
    118 H118       32.9152  -50.4205  -50.6232 H         1 UNK         0.0794 
    119 H119       34.7744  -52.1490  -52.3441 H         1 UNK         0.0786 
    120 H120       33.4958  -52.7683  -51.3065 H         1 UNK         0.0786 
    121 H121       34.8698  -51.9421  -50.5957 H         1 UNK         0.0786 
    122 H122       34.5956  -49.2141  -52.7250 H         1 UNK         0.3032 
    123 H123       36.1358  -47.1228  -50.3331 H         1 UNK         0.1094 
    124 H124       38.3570  -47.8269  -51.2087 H         1 UNK         0.0794 
    125 H125       37.7414  -49.0163  -50.0744 H         1 UNK         0.0794 
    126 H126       37.6689  -49.3403  -51.8007 H         1 UNK         0.0794 
    127 H127       36.5585  -47.6254  -53.1689 H         1 UNK         0.3016 
@<TRIPOS>BOND
     1    1    2 1    
     2    1   67 1    
     3    1   68 1    
     4    1   69 1    
     5    2    3 2    
     6    2    4 am   BACKBONE|DICT|INTERRES
     7    4    5 1    
     8    4   70 1    
     9    5    6 1    
    10    5   65 1    
    11    5   71 1    
    12    6    7 1    
    13    6   72 1    
    14    6   73 1    
    15    7    8 1    
    16    8    9 1    
    17    8   74 1    
    18    8   75 1    
    19    9   10 ar   
    20    9   14 ar   
    21   10   11 ar   
    22   10   76 1    
    23   11   12 ar   
    24   11   48 1    
    25   12   13 ar   
    26   12   77 1    
    27   13   14 ar   
    28   13   15 1    
    29   14   78 1    
    30   15   16 1    
    31   15   79 1    
    32   15   80 1    
    33   16   17 1    
    34   17   18 1    
    35   17   81 1    
    36   17   82 1    
    37   18   19 1    
    38   18   22 1    
    39   18   83 1    
    40   19   20 am   BACKBONE|DICT|INTERRES
    41   19   21 2    
    42   20   84 1    
    43   20   85 1    
    44   22   23 am   BACKBONE|DICT|INTERRES
    45   22   86 1    
    46   23   24 2    
    47   23   25 1    
    48   25   26 1    
    49   25   27 1    
    50   25   87 1    
    51   26   88 1    
    52   26   89 1    
    53   26   90 1    
    54   27   28 am   BACKBONE|DICT|INTERRES
    55   27   91 1    
    56   28   29 2    
    57   28   30 1    
    58   30   31 1    
    59   30   32 1    
    60   30   92 1    
    61   31   93 1    
    62   31   94 1    
    63   31   95 1    
    64   32   33 am   BACKBONE|DICT|INTERRES
    65   32   96 1    
    66   33   34 2    
    67   33   35 1    
    68   35   36 1    
    69   35   37 1    
    70   35   97 1    
    71   36   98 1    
    72   36   99 1    
    73   36  100 1    
    74   37   38 am   BACKBONE|DICT|INTERRES
    75   37  101 1    
    76   38   39 2    
    77   38   40 1    
    78   40   41 1    
    79   40   42 1    
    80   40  102 1    
    81   41  103 1    
    82   41  104 1    
    83   41  105 1    
    84   42   43 am   BACKBONE|DICT|INTERRES
    85   42  106 1    
    86   43   44 2    
    87   43   45 1    
    88   45   46 1    
    89   45   49 1    
    90   45  107 1    
    91   46   47 1    
    92   46  108 1    
    93   46  109 1    
    94   47   48 1    
    95   48  110 1    
    96   48  111 1    
    97   49   50 am   BACKBONE|DICT|INTERRES
    98   49  112 1    
    99   50   51 2    
   100   50   52 1    
   101   52   53 1    
   102   52   54 1    
   103   52  113 1    
   104   53  114 1    
   105   53  115 1    
   106   53  116 1    
   107   54   55 am   BACKBONE|DICT|INTERRES
   108   54  117 1    
   109   55   56 2    
   110   55   57 1    
   111   57   58 1    
   112   57   59 1    
   113   57  118 1    
   114   58  119 1    
   115   58  120 1    
   116   58  121 1    
   117   59   60 am   BACKBONE|DICT|INTERRES
   118   59  122 1    
   119   60   61 2    
   120   60   62 1    
   121   62   63 1    
   122   62   64 1    
   123   62  123 1    
   124   63  124 1    
   125   63  125 1    
   126   63  126 1    
   127   64   65 am   BACKBONE|DICT|INTERRES
   128   64  127 1    
   129   65   66 2    
@<TRIPOS>SUBSTRUCTURE
     1 UNK         1 GROUP             0       ****    0 ROOT    
