@<TRIPOS>MOLECULE
3R134
127   129    1
SMALL
USER_CHARGES


@<TRIPOS>ATOM
      1 CA         37.7753  -48.8195  -55.9676 C.3       0 UNK        -0.1968 
      2 C          36.3135  -48.5174  -55.6761 C.2       0 UNK         0.4852 
      3 O          35.6387  -49.3294  -55.0430 O.2       0 UNK        -0.5359 
      4 N          35.8234  -47.3482  -56.1156 N.am      1 UNK        -0.4300 
      5 CA         34.4357  -46.8845  -55.9625 C.3       1 UNK         0.0863 
      6 C6         34.2245  -45.5164  -56.6573 C.3       11 UNK        -0.0953 
      7 S7         32.5022  -45.2529  -57.1992 S.3       11 UNK        -0.2369 
      8 C8         32.0235  -43.7347  -56.3136 C.3       11 UNK         0.0226 
      9 C9         30.9189  -43.9965  -55.3017 C.ar      11 UNK        -0.0699 
     10 C10        31.2247  -44.2361  -53.9584 C.ar      11 UNK        -0.0804 
     11 C11        30.2030  -44.4464  -53.0263 C.ar      11 UNK        -0.0871 
     12 C12        28.8696  -44.4036  -53.4442 C.ar      11 UNK        -0.1008 
     13 C13        28.5535  -44.1884  -54.7871 C.ar      11 UNK        -0.0735 
     14 C14        29.5823  -43.9836  -55.7110 C.ar      11 UNK        -0.0945 
     15 C15        27.1027  -44.2300  -55.2404 C.3       11 UNK         0.0169 
     16 S16        26.2450  -42.6389  -55.0181 S.3       11 UNK        -0.2669 
     17 C17        26.9269  -41.6192  -56.3729 C.3       11 UNK        -0.0850 
     18 CA         25.9608  -41.4868  -57.5891 C.3       10 UNK         0.0855 
     19 C          26.4088  -40.3779  -58.5924 C.2       10 UNK         0.5543 
     20 N          26.1526  -40.5168  -59.8876 N.am      10 UNK        -0.7343 
     21 O          26.9657  -39.3584  -58.1917 O.2       10 UNK        -0.5027 
     22 N          25.6259  -42.7837  -58.2126 N.am      10 UNK        -0.4495 
     23 C          26.4869  -43.6107  -58.8194 C.2       10 UNK         0.4903 
     24 O          27.6922  -43.3860  -58.9500 O.2       10 UNK        -0.4860 
     25 CA         25.8956  -44.9049  -59.3955 C.3       9 UNK         0.0227 
     26 CB         25.5646  -44.7255  -60.8863 C.3       9 UNK        -0.1964 
     27 N          26.8620  -45.9929  -59.2447 N.am      9 UNK        -0.4231 
     28 C          26.9124  -46.8273  -58.1997 C.2       9 UNK         0.5014 
     29 O          26.0790  -46.8455  -57.2906 O.2       9 UNK        -0.5270 
     30 CA         28.1342  -47.7618  -58.1481 C.3       8 UNK         0.0284 
     31 CB         29.3190  -47.0527  -57.4730 C.3       8 UNK        -0.1977 
     32 N          27.8696  -49.0061  -57.4269 N.am      8 UNK        -0.4342 
     33 C          27.0274  -49.9699  -57.8201 C.2       8 UNK         0.5039 
     34 O          26.3884  -49.9372  -58.8733 O.2       8 UNK        -0.5547 
     35 CA         26.8879  -51.1892  -56.8967 C.3       7 UNK         0.0281 
     36 CB         27.9938  -52.2152  -57.1971 C.3       7 UNK        -0.1963 
     37 N          26.9534  -50.8149  -55.4818 N.am      7 UNK        -0.4444 
     38 C          25.8907  -50.6827  -54.6766 C.2       7 UNK         0.5104 
     39 O          24.7278  -50.8514  -55.0456 O.2       7 UNK        -0.5100 
     40 CA         26.1560  -50.3376  -53.1979 C.3       6 UNK         0.0396 
     41 CB         26.0696  -51.6059  -52.3334 C.3       6 UNK        -0.1801 
     42 N          27.4523  -49.6949  -52.9691 N.am      6 UNK        -0.4747 
     43 C          27.7140  -48.4038  -53.2188 C.2       6 UNK         0.5012 
     44 O          26.8691  -47.6040  -53.6192 O.2       6 UNK        -0.5003 
     45 CA         29.1620  -47.9210  -52.9849 C.3       5 UNK         0.0782 
     46 C46        29.2776  -47.2773  -51.5799 C.3       11 UNK        -0.0868 
     47 S47        30.8992  -46.4943  -51.2927 S.3       11 UNK        -0.2515 
     48 C48        30.5372  -44.7308  -51.5698 C.3       11 UNK         0.0199 
     49 N          30.1899  -48.9513  -53.2017 N.am      5 UNK        -0.4607 
     50 C          30.3701  -49.6589  -54.3260 C.2       4 UNK         0.5031 
     51 O          29.5926  -49.6185  -55.2798 O.2       4 UNK        -0.5119 
     52 CA         31.5999  -50.5776  -54.4014 C.3       4 UNK         0.0263 
     53 CB         32.1666  -50.6536  -55.8316 C.3       4 UNK        -0.1967 
     54 N          32.6630  -50.1363  -53.4964 N.am      4 UNK        -0.4237 
     55 C          33.2995  -50.9155  -52.6094 C.2       3 UNK         0.4908 
     56 O          32.9903  -52.0886  -52.3953 O.2       3 UNK        -0.5102 
     57 CA         34.4852  -50.3126  -51.8305 C.3       3 UNK         0.0241 
     58 CB         35.7626  -51.1440  -52.0467 C.3       3 UNK        -0.1971 
     59 N          34.7555  -48.9288  -52.2249 N.am      3 UNK        -0.4139 
     60 C          34.4501  -47.8483  -51.4929 C.2       2 UNK         0.5016 
     61 O          34.0042  -47.9099  -50.3468 O.2       2 UNK        -0.5319 
     62 CA         34.6721  -46.4590  -52.1284 C.3       2 UNK         0.0286 
     63 CB         35.8653  -45.7488  -51.4683 C.3       2 UNK        -0.1963 
     64 N          34.8744  -46.4692  -53.5815 N.am      2 UNK        -0.4790 
     65 C          33.9679  -46.8561  -54.4917 C.2       1 UNK         0.5024 
     66 O          32.8428  -47.2574  -54.2005 O.2       1 UNK        -0.4888 
     67 H67        38.3203  -48.9656  -55.0354 H         1 UNK         0.0892 
     68 H68        37.8574  -49.7325  -56.5566 H         1 UNK         0.0892 
     69 H69        38.2575  -48.0139  -56.5208 H         1 UNK         0.0892 
     70 H70        36.4360  -46.7257  -56.6236 H         1 UNK         0.3107 
     71 H71        33.8204  -47.6270  -56.4750 H         1 UNK         0.0773 
     72 H72        34.8273  -45.4655  -57.5654 H         1 UNK         0.0680 
     73 H73        34.5773  -44.6953  -56.0313 H         1 UNK         0.0680 
     74 H74        31.6779  -43.0047  -57.0471 H         1 UNK         0.0650 
     75 H75        32.8813  -43.2748  -55.8225 H         1 UNK         0.0650 
     76 H76        32.2573  -44.2685  -53.6396 H         1 UNK         0.1397 
     77 H77        28.0731  -44.5659  -52.7311 H         1 UNK         0.1363 
     78 H78        29.3456  -43.8249  -56.7544 H         1 UNK         0.1355 
     79 H79        27.0453  -44.5405  -56.2803 H         1 UNK         0.0707 
     80 H80        26.5688  -44.9958  -54.6756 H         1 UNK         0.0707 
     81 H81        27.1281  -40.6368  -55.9421 H         1 UNK         0.1034 
     82 H82        27.8975  -41.9979  -56.6893 H         1 UNK         0.1034 
     83 H83        25.0142  -41.1137  -57.1967 H         1 UNK         0.0482 
     84 H84        25.6865  -41.3412  -60.2297 H         1 UNK         0.3460 
     85 H85        26.4343  -39.7913  -60.5280 H         1 UNK         0.3460 
     86 H86        24.6513  -43.0449  -58.1671 H         1 UNK         0.2989 
     87 H87        24.9736  -45.1496  -58.8634 H         1 UNK         0.0559 
     88 H88        26.4454  -44.4499  -61.4680 H         1 UNK         0.0848 
     89 H89        24.8205  -43.9411  -61.0303 H         1 UNK         0.0848 
     90 H90        25.1541  -45.6406  -61.3136 H         1 UNK         0.0848 
     91 H91        27.6259  -45.9991  -59.9058 H         1 UNK         0.3144 
     92 H92        28.4165  -48.0230  -59.1701 H         1 UNK         0.0727 
     93 H93        29.5661  -46.1215  -57.9843 H         1 UNK         0.0790 
     94 H94        30.2150  -47.6741  -57.4823 H         1 UNK         0.0790 
     95 H95        29.0989  -46.8063  -56.4333 H         1 UNK         0.0790 
     96 H96        28.3932  -49.1437  -56.5653 H         1 UNK         0.3215 
     97 H97        25.9270  -51.6605  -57.1153 H         1 UNK         0.0863 
     98 H98        28.9875  -51.8098  -57.0025 H         1 UNK         0.0808 
     99 H99        27.9661  -52.5230  -58.2433 H         1 UNK         0.0808 
    100 H100       27.8745  -53.1140  -56.5920 H         1 UNK         0.0808 
    101 H101       27.8713  -50.5824  -55.1182 H         1 UNK         0.3118 
    102 H102       25.3669  -49.6555  -52.8738 H         1 UNK         0.0546 
    103 H103       26.8361  -52.3334  -52.6036 H         1 UNK         0.0828 
    104 H104       25.1015  -52.0945  -52.4532 H         1 UNK         0.0828 
    105 H105       26.1833  -51.3739  -51.2744 H         1 UNK         0.0828 
    106 H106       28.2037  -50.2795  -52.6315 H         1 UNK         0.3005 
    107 H107       29.3483  -47.1492  -53.7348 H         1 UNK         0.1257 
    108 H108       29.1302  -48.0326  -50.8056 H         1 UNK         0.0775 
    109 H109       28.4940  -46.5344  -51.4210 H         1 UNK         0.0775 
    110 H110       29.7216  -44.4160  -50.9169 H         1 UNK         0.0840 
    111 H111       31.4067  -44.1429  -51.2720 H         1 UNK         0.0840 
    112 H112       30.8820  -49.0332  -52.4717 H         1 UNK         0.2987 
    113 H113       31.2498  -51.5728  -54.1211 H         1 UNK         0.0785 
    114 H114       31.4316  -51.0576  -56.5287 H         1 UNK         0.0798 
    115 H115       33.0439  -51.2991  -55.8766 H         1 UNK         0.0798 
    116 H116       32.4582  -49.6686  -56.1974 H         1 UNK         0.0798 
    117 H117       32.9376  -49.1633  -53.5965 H         1 UNK         0.3079 
    118 H118       34.2264  -50.3641  -50.7710 H         1 UNK         0.0794 
    119 H119       35.6245  -52.1721  -51.7093 H         1 UNK         0.0786 
    120 H120       36.6027  -50.7317  -51.4876 H         1 UNK         0.0786 
    121 H121       36.0466  -51.1820  -53.0990 H         1 UNK         0.0786 
    122 H122       35.1191  -48.8064  -53.1660 H         1 UNK         0.3032 
    123 H123       33.7722  -45.8745  -51.9265 H         1 UNK         0.1094 
    124 H124       35.7332  -45.6851  -50.3872 H         1 UNK         0.0794 
    125 H125       36.8013  -46.2782  -51.6512 H         1 UNK         0.0794 
    126 H126       35.9759  -44.7292  -51.8380 H         1 UNK         0.0794 
    127 H127       35.7866  -46.1878  -53.9115 H         1 UNK         0.3016 
@<TRIPOS>BOND
     1    1    2 1    
     2    1   67 1    
     3    1   68 1    
     4    1   69 1    
     5    2    3 2    
     6    2    4 am   BACKBONE|DICT|INTERRES
     7    4    5 1    
     8    4   70 1    
     9    5    6 1    
    10    5   65 1    
    11    5   71 1    
    12    6    7 1    
    13    6   72 1    
    14    6   73 1    
    15    7    8 1    
    16    8    9 1    
    17    8   74 1    
    18    8   75 1    
    19    9   10 ar   
    20    9   14 ar   
    21   10   11 ar   
    22   10   76 1    
    23   11   12 ar   
    24   11   48 1    
    25   12   13 ar   
    26   12   77 1    
    27   13   14 ar   
    28   13   15 1    
    29   14   78 1    
    30   15   16 1    
    31   15   79 1    
    32   15   80 1    
    33   16   17 1    
    34   17   18 1    
    35   17   81 1    
    36   17   82 1    
    37   18   19 1    
    38   18   22 1    
    39   18   83 1    
    40   19   20 am   BACKBONE|DICT|INTERRES
    41   19   21 2    
    42   20   84 1    
    43   20   85 1    
    44   22   23 am   BACKBONE|DICT|INTERRES
    45   22   86 1    
    46   23   24 2    
    47   23   25 1    
    48   25   26 1    
    49   25   27 1    
    50   25   87 1    
    51   26   88 1    
    52   26   89 1    
    53   26   90 1    
    54   27   28 am   BACKBONE|DICT|INTERRES
    55   27   91 1    
    56   28   29 2    
    57   28   30 1    
    58   30   31 1    
    59   30   32 1    
    60   30   92 1    
    61   31   93 1    
    62   31   94 1    
    63   31   95 1    
    64   32   33 am   BACKBONE|DICT|INTERRES
    65   32   96 1    
    66   33   34 2    
    67   33   35 1    
    68   35   36 1    
    69   35   37 1    
    70   35   97 1    
    71   36   98 1    
    72   36   99 1    
    73   36  100 1    
    74   37   38 am   BACKBONE|DICT|INTERRES
    75   37  101 1    
    76   38   39 2    
    77   38   40 1    
    78   40   41 1    
    79   40   42 1    
    80   40  102 1    
    81   41  103 1    
    82   41  104 1    
    83   41  105 1    
    84   42   43 am   BACKBONE|DICT|INTERRES
    85   42  106 1    
    86   43   44 2    
    87   43   45 1    
    88   45   46 1    
    89   45   49 1    
    90   45  107 1    
    91   46   47 1    
    92   46  108 1    
    93   46  109 1    
    94   47   48 1    
    95   48  110 1    
    96   48  111 1    
    97   49   50 am   BACKBONE|DICT|INTERRES
    98   49  112 1    
    99   50   51 2    
   100   50   52 1    
   101   52   53 1    
   102   52   54 1    
   103   52  113 1    
   104   53  114 1    
   105   53  115 1    
   106   53  116 1    
   107   54   55 am   BACKBONE|DICT|INTERRES
   108   54  117 1    
   109   55   56 2    
   110   55   57 1    
   111   57   58 1    
   112   57   59 1    
   113   57  118 1    
   114   58  119 1    
   115   58  120 1    
   116   58  121 1    
   117   59   60 am   BACKBONE|DICT|INTERRES
   118   59  122 1    
   119   60   61 2    
   120   60   62 1    
   121   62   63 1    
   122   62   64 1    
   123   62  123 1    
   124   63  124 1    
   125   63  125 1    
   126   63  126 1    
   127   64   65 am   BACKBONE|DICT|INTERRES
   128   64  127 1    
   129   65   66 2    
@<TRIPOS>SUBSTRUCTURE
     1 UNK         1 GROUP             0       ****    0 ROOT    
