@<TRIPOS>MOLECULE
3R134
127   129    1
SMALL
USER_CHARGES


@<TRIPOS>ATOM
      1 CA         30.3116  -45.4930  -48.3141 C.3       0 UNK        -0.1968 
      2 C          31.7348  -45.6611  -48.8254 C.2       0 UNK         0.4852 
      3 O          32.6126  -46.0751  -48.0669 O.2       0 UNK        -0.5359 
      4 N          31.9676  -45.3451  -50.1065 N.am      1 UNK        -0.4300 
      5 CA         33.2781  -45.4193  -50.7705 C.3       1 UNK         0.0863 
      6 C6         33.3123  -44.5952  -52.0826 C.3       11 UNK        -0.0953 
      7 S7         32.7402  -42.8762  -51.8738 S.3       11 UNK        -0.2369 
      8 C8         33.1431  -42.1693  -53.5023 C.3       11 UNK         0.0226 
      9 C9         32.4439  -42.9004  -54.6409 C.ar      11 UNK        -0.0699 
     10 C10        33.1753  -43.7259  -55.5001 C.ar      11 UNK        -0.0804 
     11 C11        32.5466  -44.3863  -56.5601 C.ar      11 UNK        -0.0871 
     12 C12        31.1707  -44.2239  -56.7503 C.ar      11 UNK        -0.1008 
     13 C13        30.4263  -43.4120  -55.8891 C.ar      11 UNK        -0.0735 
     14 C14        31.0690  -42.7466  -54.8408 C.ar      11 UNK        -0.0945 
     15 C15        28.9270  -43.2607  -56.0858 C.3       11 UNK         0.0169 
     16 S16        28.5533  -42.0317  -57.3753 S.3       11 UNK        -0.2669 
     17 C17        26.7606  -41.7364  -57.1516 C.3       11 UNK        -0.0850 
     18 CA         25.8876  -43.0060  -56.9521 C.3       10 UNK         0.0855 
     19 C          24.3927  -42.6297  -56.7327 C.2       10 UNK         0.5543 
     20 N          23.4587  -43.0990  -57.5510 N.am      10 UNK        -0.7343 
     21 O          24.0750  -41.9010  -55.7961 O.2       10 UNK        -0.5027 
     22 N          26.1188  -43.9984  -58.0157 N.am      10 UNK        -0.4495 
     23 C          25.9696  -45.3191  -57.8638 C.2       10 UNK         0.4903 
     24 O          25.5969  -45.8441  -56.8127 O.2       10 UNK        -0.4860 
     25 CA         26.2715  -46.1941  -59.0928 C.3       9 UNK         0.0227 
     26 CB         27.4709  -45.6854  -59.9200 C.3       9 UNK        -0.1964 
     27 N          26.5428  -47.5581  -58.6460 N.am      9 UNK        -0.4231 
     28 C          25.9951  -48.6722  -59.1429 C.2       9 UNK         0.5014 
     29 O          25.2251  -48.6881  -60.1048 O.2       9 UNK        -0.5270 
     30 CA         26.3678  -50.0045  -58.4674 C.3       8 UNK         0.0284 
     31 CB         27.5099  -50.6956  -59.2302 C.3       8 UNK        -0.1977 
     32 N          26.7394  -49.8740  -57.0552 N.am      8 UNK        -0.4342 
     33 C          25.8759  -49.6238  -56.0599 C.2       8 UNK         0.5039 
     34 O          24.6679  -49.4545  -56.2294 O.2       8 UNK        -0.5547 
     35 CA         26.4462  -49.5736  -54.6344 C.3       7 UNK         0.0281 
     36 CB         26.6457  -50.9954  -54.0827 C.3       7 UNK        -0.1963 
     37 N          27.7205  -48.8556  -54.5955 N.am      7 UNK        -0.4444 
     38 C          27.8773  -47.5977  -54.1590 C.2       7 UNK         0.5104 
     39 O          26.9724  -46.9239  -53.6660 O.2       7 UNK        -0.5100 
     40 CA         29.2870  -46.9815  -54.2678 C.3       6 UNK         0.0396 
     41 CB         29.9930  -47.0386  -52.9070 C.3       6 UNK        -0.1801 
     42 N          30.1387  -47.6116  -55.2828 N.am      6 UNK        -0.4747 
     43 C          29.8862  -47.5674  -56.5998 C.2       6 UNK         0.5012 
     44 O          28.9349  -46.9579  -57.0849 O.2       6 UNK        -0.5003 
     45 CA         30.7821  -48.3985  -57.5383 C.3       5 UNK         0.0782 
     46 C46        31.8791  -47.5494  -58.2230 C.3       11 UNK        -0.0868 
     47 S47        33.2351  -47.0205  -57.1179 S.3       11 UNK        -0.2515 
     48 C48        33.3673  -45.2472  -57.5098 C.3       11 UNK         0.0199 
     49 N          31.3134  -49.6220  -56.9314 N.am      5 UNK        -0.4607 
     50 C          30.5894  -50.6283  -56.4281 C.2       4 UNK         0.5031 
     51 O          29.3597  -50.6055  -56.3673 O.2       4 UNK        -0.5119 
     52 CA         31.3393  -51.8571  -55.8802 C.3       4 UNK         0.0263 
     53 CB         31.5878  -52.8911  -56.9949 C.3       4 UNK        -0.1967 
     54 N          32.5705  -51.5433  -55.1386 N.am      4 UNK        -0.4237 
     55 C          33.7141  -50.9984  -55.5830 C.2       3 UNK         0.4908 
     56 O          33.9368  -50.7549  -56.7700 O.2       3 UNK        -0.5102 
     57 CA         34.7689  -50.6310  -54.5169 C.3       3 UNK         0.0241 
     58 CB         35.6852  -49.4766  -54.9765 C.3       3 UNK        -0.1971 
     59 N          34.2131  -50.3304  -53.1871 N.am      3 UNK        -0.4139 
     60 C          33.2980  -49.3978  -52.8749 C.2       2 UNK         0.5016 
     61 O          32.7089  -48.7034  -53.7070 O.2       2 UNK        -0.5319 
     62 CA         32.9355  -49.2385  -51.3835 C.3       2 UNK         0.0286 
     63 CB         33.8861  -49.9679  -50.4052 C.3       2 UNK        -0.1963 
     64 N          32.7898  -47.8254  -51.0175 N.am      2 UNK        -0.4790 
     65 C          33.7328  -46.8692  -51.0557 C.2       1 UNK         0.5024 
     66 O          34.9177  -47.0820  -51.3177 O.2       1 UNK        -0.4888 
     67 H67        29.9267  -46.4468  -47.9544 H         1 UNK         0.0892 
     68 H68        30.2920  -44.7838  -47.4870 H         1 UNK         0.0892 
     69 H69        29.6390  -45.1269  -49.0898 H         1 UNK         0.0892 
     70 H70        31.2193  -44.9681  -50.6704 H         1 UNK         0.3107 
     71 H71        34.0153  -44.9883  -50.0894 H         1 UNK         0.0773 
     72 H72        34.3276  -44.5674  -52.4833 H         1 UNK         0.0680 
     73 H73        32.6965  -45.0666  -52.8497 H         1 UNK         0.0680 
     74 H74        34.2256  -42.1840  -53.6384 H         1 UNK         0.0650 
     75 H75        32.8483  -41.1191  -53.5133 H         1 UNK         0.0650 
     76 H76        34.2389  -43.8487  -55.3476 H         1 UNK         0.1397 
     77 H77        30.6734  -44.7278  -57.5671 H         1 UNK         0.1363 
     78 H78        30.5003  -42.1122  -54.1746 H         1 UNK         0.1355 
     79 H79        28.4979  -44.2253  -56.3612 H         1 UNK         0.0707 
     80 H80        28.4535  -42.9634  -55.1488 H         1 UNK         0.0707 
     81 H81        26.6460  -41.0661  -56.2973 H         1 UNK         0.1034 
     82 H82        26.4084  -41.1729  -58.0176 H         1 UNK         0.1034 
     83 H83        26.1924  -43.4596  -56.0078 H         1 UNK         0.0482 
     84 H84        22.4942  -42.8509  -57.3960 H         1 UNK         0.3460 
     85 H85        23.7093  -43.7021  -58.3177 H         1 UNK         0.3460 
     86 H86        26.4245  -43.6339  -58.9056 H         1 UNK         0.2989 
     87 H87        25.3785  -46.1751  -59.7204 H         1 UNK         0.0559 
     88 H88        27.2494  -44.7350  -60.4058 H         1 UNK         0.0848 
     89 H89        27.7310  -46.3894  -60.7106 H         1 UNK         0.0848 
     90 H90        28.3572  -45.5411  -59.3007 H         1 UNK         0.0848 
     91 H91        27.1492  -47.6197  -57.8340 H         1 UNK         0.3144 
     92 H92        25.4895  -50.6516  -58.5220 H         1 UNK         0.0727 
     93 H93        27.7461  -51.6679  -58.7973 H         1 UNK         0.0790 
     94 H94        28.4203  -50.0971  -59.2252 H         1 UNK         0.0790 
     95 H95        27.2366  -50.8630  -60.2730 H         1 UNK         0.0790 
     96 H96        27.7104  -50.0749  -56.8203 H         1 UNK         0.3215 
     97 H97        25.7107  -49.0705  -54.0027 H         1 UNK         0.0863 
     98 H98        26.9943  -50.9726  -53.0502 H         1 UNK         0.0808 
     99 H99        27.3705  -51.5630  -54.6678 H         1 UNK         0.0808 
    100 H100       25.7081  -51.5528  -54.0956 H         1 UNK         0.0808 
    101 H101       28.5184  -49.3253  -55.0079 H         1 UNK         0.3118 
    102 H102       29.1661  -45.9319  -54.5425 H         1 UNK         0.0546 
    103 H103       29.4163  -46.5152  -52.1434 H         1 UNK         0.0828 
    104 H104       30.9728  -46.5681  -52.9588 H         1 UNK         0.0828 
    105 H105       30.1299  -48.0668  -52.5707 H         1 UNK         0.0828 
    106 H106       30.9656  -48.1023  -54.9567 H         1 UNK         0.3005 
    107 H107       30.1170  -48.7344  -58.3356 H         1 UNK         0.1257 
    108 H108       32.3299  -48.1305  -59.0290 H         1 UNK         0.0775 
    109 H109       31.4290  -46.6845  -58.7127 H         1 UNK         0.0775 
    110 H110       34.4196  -44.9649  -57.4507 H         1 UNK         0.0840 
    111 H111       33.0722  -45.0577  -58.5427 H         1 UNK         0.0840 
    112 H112       32.3242  -49.7264  -56.9365 H         1 UNK         0.2987 
    113 H113       30.6716  -52.3204  -55.1519 H         1 UNK         0.0785 
    114 H114       32.0593  -53.7919  -56.6022 H         1 UNK         0.0798 
    115 H115       32.2249  -52.4964  -57.7867 H         1 UNK         0.0798 
    116 H116       30.6478  -53.1930  -57.4591 H         1 UNK         0.0798 
    117 H117       32.5026  -51.6774  -54.1397 H         1 UNK         0.3079 
    118 H118       35.3914  -51.5188  -54.3965 H         1 UNK         0.0794 
    119 H119       36.2064  -49.7274  -55.9011 H         1 UNK         0.0786 
    120 H120       36.4458  -49.2519  -54.2288 H         1 UNK         0.0786 
    121 H121       35.1177  -48.5633  -55.1595 H         1 UNK         0.0786 
    122 H122       34.6129  -50.8581  -52.4233 H         1 UNK         0.3032 
    123 H123       31.9462  -49.6850  -51.2717 H         1 UNK         0.1094 
    124 H124       34.9215  -49.6433  -50.5158 H         1 UNK         0.0794 
    125 H125       33.5952  -49.7842  -49.3707 H         1 UNK         0.0794 
    126 H126       33.8568  -51.0484  -50.5511 H         1 UNK         0.0794 
    127 H127       31.8505  -47.5285  -50.7983 H         1 UNK         0.3016 
@<TRIPOS>BOND
     1    1    2 1    
     2    1   67 1    
     3    1   68 1    
     4    1   69 1    
     5    2    3 2    
     6    2    4 am   BACKBONE|DICT|INTERRES
     7    4    5 1    
     8    4   70 1    
     9    5    6 1    
    10    5   65 1    
    11    5   71 1    
    12    6    7 1    
    13    6   72 1    
    14    6   73 1    
    15    7    8 1    
    16    8    9 1    
    17    8   74 1    
    18    8   75 1    
    19    9   10 ar   
    20    9   14 ar   
    21   10   11 ar   
    22   10   76 1    
    23   11   12 ar   
    24   11   48 1    
    25   12   13 ar   
    26   12   77 1    
    27   13   14 ar   
    28   13   15 1    
    29   14   78 1    
    30   15   16 1    
    31   15   79 1    
    32   15   80 1    
    33   16   17 1    
    34   17   18 1    
    35   17   81 1    
    36   17   82 1    
    37   18   19 1    
    38   18   22 1    
    39   18   83 1    
    40   19   20 am   BACKBONE|DICT|INTERRES
    41   19   21 2    
    42   20   84 1    
    43   20   85 1    
    44   22   23 am   BACKBONE|DICT|INTERRES
    45   22   86 1    
    46   23   24 2    
    47   23   25 1    
    48   25   26 1    
    49   25   27 1    
    50   25   87 1    
    51   26   88 1    
    52   26   89 1    
    53   26   90 1    
    54   27   28 am   BACKBONE|DICT|INTERRES
    55   27   91 1    
    56   28   29 2    
    57   28   30 1    
    58   30   31 1    
    59   30   32 1    
    60   30   92 1    
    61   31   93 1    
    62   31   94 1    
    63   31   95 1    
    64   32   33 am   BACKBONE|DICT|INTERRES
    65   32   96 1    
    66   33   34 2    
    67   33   35 1    
    68   35   36 1    
    69   35   37 1    
    70   35   97 1    
    71   36   98 1    
    72   36   99 1    
    73   36  100 1    
    74   37   38 am   BACKBONE|DICT|INTERRES
    75   37  101 1    
    76   38   39 2    
    77   38   40 1    
    78   40   41 1    
    79   40   42 1    
    80   40  102 1    
    81   41  103 1    
    82   41  104 1    
    83   41  105 1    
    84   42   43 am   BACKBONE|DICT|INTERRES
    85   42  106 1    
    86   43   44 2    
    87   43   45 1    
    88   45   46 1    
    89   45   49 1    
    90   45  107 1    
    91   46   47 1    
    92   46  108 1    
    93   46  109 1    
    94   47   48 1    
    95   48  110 1    
    96   48  111 1    
    97   49   50 am   BACKBONE|DICT|INTERRES
    98   49  112 1    
    99   50   51 2    
   100   50   52 1    
   101   52   53 1    
   102   52   54 1    
   103   52  113 1    
   104   53  114 1    
   105   53  115 1    
   106   53  116 1    
   107   54   55 am   BACKBONE|DICT|INTERRES
   108   54  117 1    
   109   55   56 2    
   110   55   57 1    
   111   57   58 1    
   112   57   59 1    
   113   57  118 1    
   114   58  119 1    
   115   58  120 1    
   116   58  121 1    
   117   59   60 am   BACKBONE|DICT|INTERRES
   118   59  122 1    
   119   60   61 2    
   120   60   62 1    
   121   62   63 1    
   122   62   64 1    
   123   62  123 1    
   124   63  124 1    
   125   63  125 1    
   126   63  126 1    
   127   64   65 am   BACKBONE|DICT|INTERRES
   128   64  127 1    
   129   65   66 2    
@<TRIPOS>SUBSTRUCTURE
     1 UNK         1 GROUP             0       ****    0 ROOT    
