@<TRIPOS>MOLECULE
3R134
127   129    1
SMALL
USER_CHARGES


@<TRIPOS>ATOM
      1 CA         32.7868  -43.2892  -57.0005 C.3       0 UNK        -0.1968 
      2 C          32.9564  -44.2015  -55.7950 C.2       0 UNK         0.4852 
      3 O          32.4296  -45.3152  -55.7924 O.2       0 UNK        -0.5359 
      4 N          33.7066  -43.7488  -54.7804 N.am      1 UNK        -0.4300 
      5 CA         33.9490  -44.4379  -53.5043 C.3       1 UNK         0.0863 
      6 C6         34.3572  -43.4510  -52.3731 C.3       11 UNK        -0.0953 
      7 S7         33.3127  -41.9575  -52.2474 S.3       11 UNK        -0.2369 
      8 C8         32.0362  -42.4651  -51.0527 C.3       11 UNK         0.0226 
      9 C9         31.0028  -43.3845  -51.6864 C.ar      11 UNK        -0.0699 
     10 C10        30.8962  -44.7182  -51.2818 C.ar      11 UNK        -0.0804 
     11 C11        29.9589  -45.5673  -51.8790 C.ar      11 UNK        -0.0871 
     12 C12        29.1110  -45.0690  -52.8729 C.ar      11 UNK        -0.1008 
     13 C13        29.2071  -43.7365  -53.2820 C.ar      11 UNK        -0.0735 
     14 C14        30.1507  -42.8980  -52.6827 C.ar      11 UNK        -0.0945 
     15 C15        28.3020  -43.2089  -54.3818 C.3       11 UNK         0.0169 
     16 S16        28.9456  -43.6677  -56.0176 S.3       11 UNK        -0.2669 
     17 C17        27.7554  -42.8160  -57.1057 C.3       11 UNK        -0.0850 
     18 CA         26.4840  -43.6618  -57.4060 C.3       10 UNK         0.0855 
     19 C          25.4226  -42.8873  -58.2438 C.2       10 UNK         0.5543 
     20 N          24.3457  -43.5360  -58.6656 N.am      10 UNK        -0.7343 
     21 O          25.5610  -41.6949  -58.5089 O.2       10 UNK        -0.5027 
     22 N          26.7955  -44.9991  -57.9389 N.am      10 UNK        -0.4495 
     23 C          27.3372  -45.2694  -59.1355 C.2       10 UNK         0.4903 
     24 O          27.6575  -44.4171  -59.9645 O.2       10 UNK        -0.4860 
     25 CA         27.5534  -46.7539  -59.4675 C.3       9 UNK         0.0227 
     26 CB         28.8588  -47.2671  -58.8351 C.3       9 UNK        -0.1964 
     27 N          26.4231  -47.5620  -59.0057 N.am      9 UNK        -0.4231 
     28 C          25.2967  -47.7544  -59.7093 C.2       9 UNK         0.5014 
     29 O          25.1427  -47.3797  -60.8725 O.2       9 UNK        -0.5270 
     30 CA         24.1347  -48.4789  -59.0013 C.3       8 UNK         0.0284 
     31 CB         24.1982  -49.9908  -59.2733 C.3       8 UNK        -0.1977 
     32 N          24.0976  -48.2490  -57.5548 N.am      8 UNK        -0.4342 
     33 C          23.8815  -47.0618  -56.9701 C.2       8 UNK         0.5039 
     34 O          23.5939  -46.0389  -57.5899 O.2       8 UNK        -0.5547 
     35 CA         24.0676  -46.9861  -55.4425 C.3       7 UNK         0.0281 
     36 CB         22.7114  -47.1084  -54.7299 C.3       7 UNK        -0.1963 
     37 N          24.9961  -47.9891  -54.9034 N.am      7 UNK        -0.4444 
     38 C          26.2871  -48.0979  -55.2430 C.2       7 UNK         0.5104 
     39 O          26.8478  -47.3549  -56.0542 O.2       7 UNK        -0.5100 
     40 CA         27.0529  -49.2766  -54.6346 C.3       6 UNK         0.0396 
     41 CB         26.6503  -50.5953  -55.3254 C.3       6 UNK        -0.1801 
     42 N          28.4841  -49.0412  -54.7983 N.am      6 UNK        -0.4747 
     43 C          29.4571  -49.6746  -54.1340 C.2       6 UNK         0.5012 
     44 O          29.2457  -50.5422  -53.2815 O.2       6 UNK        -0.5003 
     45 CA         30.9030  -49.2388  -54.4603 C.3       5 UNK         0.0782 
     46 C46        31.2630  -47.8934  -53.7837 C.3       11 UNK        -0.0868 
     47 S47        31.3596  -47.9572  -51.9569 S.3       11 UNK        -0.2515 
     48 C48        29.8745  -47.0277  -51.4615 C.3       11 UNK         0.0199 
     49 N          31.8838  -50.2816  -54.1414 N.am      5 UNK        -0.4607 
     50 C          31.9897  -51.4554  -54.7778 C.2       4 UNK         0.5031 
     51 O          31.3302  -51.7491  -55.7763 O.2       4 UNK        -0.5119 
     52 CA         33.0308  -52.4414  -54.2228 C.3       4 UNK         0.0263 
     53 CB         33.2319  -53.6816  -55.1153 C.3       4 UNK        -0.1967 
     54 N          34.3083  -51.7532  -54.0503 N.am      4 UNK        -0.4237 
     55 C          35.0872  -51.8110  -52.9629 C.2       3 UNK         0.4908 
     56 O          34.8503  -52.5239  -51.9868 O.2       3 UNK        -0.5102 
     57 CA         36.3461  -50.9185  -52.9508 C.3       3 UNK         0.0241 
     58 CB         37.5981  -51.7548  -53.2640 C.3       3 UNK        -0.1971 
     59 N          36.2891  -49.7746  -53.8717 N.am      3 UNK        -0.4139 
     60 C          35.4170  -48.7610  -53.7779 C.2       2 UNK         0.5016 
     61 O          34.5630  -48.6827  -52.8935 O.2       2 UNK        -0.5319 
     62 CA         35.4783  -47.7078  -54.9000 C.3       2 UNK         0.0286 
     63 CB         34.9492  -48.2985  -56.2194 C.3       2 UNK        -0.1963 
     64 N          34.6966  -46.5078  -54.5975 N.am      2 UNK        -0.4790 
     65 C          34.9678  -45.5964  -53.6567 C.2       1 UNK         0.5024 
     66 O          35.9852  -45.6302  -52.9607 O.2       1 UNK        -0.4888 
     67 H67        31.7298  -43.0873  -57.1705 H         1 UNK         0.0892 
     68 H68        33.2963  -42.3353  -56.8659 H         1 UNK         0.0892 
     69 H69        33.1896  -43.7682  -57.8924 H         1 UNK         0.0892 
     70 H70        34.1258  -42.8329  -54.8515 H         1 UNK         0.3107 
     71 H71        33.0081  -44.9030  -53.2033 H         1 UNK         0.0773 
     72 H72        34.3628  -43.9625  -51.4089 H         1 UNK         0.0680 
     73 H73        35.3782  -43.0984  -52.5313 H         1 UNK         0.0680 
     74 H74        31.5318  -41.5723  -50.6808 H         1 UNK         0.0650 
     75 H75        32.5077  -42.9330  -50.1872 H         1 UNK         0.0650 
     76 H76        31.5557  -45.1053  -50.5170 H         1 UNK         0.1397 
     77 H77        28.3892  -45.7205  -53.3472 H         1 UNK         0.1363 
     78 H78        30.2362  -41.8683  -53.0022 H         1 UNK         0.1355 
     79 H79        27.2956  -43.6124  -54.2597 H         1 UNK         0.0707 
     80 H80        28.2147  -42.1235  -54.3130 H         1 UNK         0.0707 
     81 H81        28.2675  -42.5634  -58.0355 H         1 UNK         0.1034 
     82 H82        27.4838  -41.8622  -56.6499 H         1 UNK         0.1034 
     83 H83        25.9957  -43.8426  -56.4479 H         1 UNK         0.0482 
     84 H84        24.1740  -44.4991  -58.3805 H         1 UNK         0.3460 
     85 H85        23.6543  -43.0446  -59.2082 H         1 UNK         0.3460 
     86 H86        26.6199  -45.7721  -57.3078 H         1 UNK         0.2989 
     87 H87        27.6476  -46.8510  -60.5512 H         1 UNK         0.0559 
     88 H88        28.8651  -47.1470  -57.7516 H         1 UNK         0.0848 
     89 H89        29.7171  -46.7166  -59.2226 H         1 UNK         0.0848 
     90 H90        29.0221  -48.3213  -59.0584 H         1 UNK         0.0848 
     91 H91        26.4510  -47.8573  -58.0375 H         1 UNK         0.3144 
     92 H92        23.2036  -48.0936  -59.4226 H         1 UNK         0.0727 
     93 H93        23.3361  -50.5076  -58.8509 H         1 UNK         0.0790 
     94 H94        25.0997  -50.4406  -58.8550 H         1 UNK         0.0790 
     95 H95        24.2008  -50.1936  -60.3454 H         1 UNK         0.0790 
     96 H96        24.2993  -49.0401  -56.9617 H         1 UNK         0.3215 
     97 H97        24.4837  -46.0011  -55.2195 H         1 UNK         0.0863 
     98 H98        22.2549  -48.0856  -54.8925 H         1 UNK         0.0808 
     99 H99        22.0101  -46.3567  -55.0956 H         1 UNK         0.0808 
    100 H100       22.8117  -46.9574  -53.6549 H         1 UNK         0.0808 
    101 H101       24.6150  -48.6424  -54.2332 H         1 UNK         0.3118 
    102 H102       26.8182  -49.3270  -53.5692 H         1 UNK         0.0546 
    103 H103       27.1701  -51.4494  -54.8913 H         1 UNK         0.0828 
    104 H104       26.8783  -50.5765  -56.3919 H         1 UNK         0.0828 
    105 H105       25.5825  -50.7904  -55.2212 H         1 UNK         0.0828 
    106 H106       28.7008  -48.2961  -55.4501 H         1 UNK         0.3005 
    107 H107       30.9499  -49.0862  -55.5413 H         1 UNK         0.1257 
    108 H108       30.5753  -47.1097  -54.1028 H         1 UNK         0.0775 
    109 H109       32.2384  -47.5689  -54.1423 H         1 UNK         0.0775 
    110 H110       28.9905  -47.5083  -51.8837 H         1 UNK         0.0840 
    111 H111       29.7660  -47.0855  -50.3776 H         1 UNK         0.0840 
    112 H112       32.4625  -50.1014  -53.3315 H         1 UNK         0.2987 
    113 H113       32.6487  -52.7751  -53.2556 H         1 UNK         0.0785 
    114 H114       33.9527  -54.3713  -54.6761 H         1 UNK         0.0798 
    115 H115       32.2969  -54.2290  -55.2420 H         1 UNK         0.0798 
    116 H116       33.5906  -53.4094  -56.1086 H         1 UNK         0.0798 
    117 H117       34.5757  -51.1261  -54.7953 H         1 UNK         0.3079 
    118 H118       36.4454  -50.5209  -51.9384 H         1 UNK         0.0794 
    119 H119       38.5076  -51.1616  -53.1664 H         1 UNK         0.0786 
    120 H120       37.5685  -52.1637  -54.2748 H         1 UNK         0.0786 
    121 H121       37.6884  -52.5962  -52.5752 H         1 UNK         0.0786 
    122 H122       36.9581  -49.7739  -54.6289 H         1 UNK         0.3032 
    123 H123       36.5209  -47.4092  -55.0305 H         1 UNK         0.1094 
    124 H124       33.9126  -48.6265  -56.1261 H         1 UNK         0.0794 
    125 H125       34.9941  -47.5664  -57.0262 H         1 UNK         0.0794 
    126 H126       35.5381  -49.1592  -56.5385 H         1 UNK         0.0794 
    127 H127       33.8373  -46.3693  -55.1243 H         1 UNK         0.3016 
@<TRIPOS>BOND
     1    1    2 1    
     2    1   67 1    
     3    1   68 1    
     4    1   69 1    
     5    2    3 2    
     6    2    4 am   BACKBONE|DICT|INTERRES
     7    4    5 1    
     8    4   70 1    
     9    5    6 1    
    10    5   65 1    
    11    5   71 1    
    12    6    7 1    
    13    6   72 1    
    14    6   73 1    
    15    7    8 1    
    16    8    9 1    
    17    8   74 1    
    18    8   75 1    
    19    9   10 ar   
    20    9   14 ar   
    21   10   11 ar   
    22   10   76 1    
    23   11   12 ar   
    24   11   48 1    
    25   12   13 ar   
    26   12   77 1    
    27   13   14 ar   
    28   13   15 1    
    29   14   78 1    
    30   15   16 1    
    31   15   79 1    
    32   15   80 1    
    33   16   17 1    
    34   17   18 1    
    35   17   81 1    
    36   17   82 1    
    37   18   19 1    
    38   18   22 1    
    39   18   83 1    
    40   19   20 am   BACKBONE|DICT|INTERRES
    41   19   21 2    
    42   20   84 1    
    43   20   85 1    
    44   22   23 am   BACKBONE|DICT|INTERRES
    45   22   86 1    
    46   23   24 2    
    47   23   25 1    
    48   25   26 1    
    49   25   27 1    
    50   25   87 1    
    51   26   88 1    
    52   26   89 1    
    53   26   90 1    
    54   27   28 am   BACKBONE|DICT|INTERRES
    55   27   91 1    
    56   28   29 2    
    57   28   30 1    
    58   30   31 1    
    59   30   32 1    
    60   30   92 1    
    61   31   93 1    
    62   31   94 1    
    63   31   95 1    
    64   32   33 am   BACKBONE|DICT|INTERRES
    65   32   96 1    
    66   33   34 2    
    67   33   35 1    
    68   35   36 1    
    69   35   37 1    
    70   35   97 1    
    71   36   98 1    
    72   36   99 1    
    73   36  100 1    
    74   37   38 am   BACKBONE|DICT|INTERRES
    75   37  101 1    
    76   38   39 2    
    77   38   40 1    
    78   40   41 1    
    79   40   42 1    
    80   40  102 1    
    81   41  103 1    
    82   41  104 1    
    83   41  105 1    
    84   42   43 am   BACKBONE|DICT|INTERRES
    85   42  106 1    
    86   43   44 2    
    87   43   45 1    
    88   45   46 1    
    89   45   49 1    
    90   45  107 1    
    91   46   47 1    
    92   46  108 1    
    93   46  109 1    
    94   47   48 1    
    95   48  110 1    
    96   48  111 1    
    97   49   50 am   BACKBONE|DICT|INTERRES
    98   49  112 1    
    99   50   51 2    
   100   50   52 1    
   101   52   53 1    
   102   52   54 1    
   103   52  113 1    
   104   53  114 1    
   105   53  115 1    
   106   53  116 1    
   107   54   55 am   BACKBONE|DICT|INTERRES
   108   54  117 1    
   109   55   56 2    
   110   55   57 1    
   111   57   58 1    
   112   57   59 1    
   113   57  118 1    
   114   58  119 1    
   115   58  120 1    
   116   58  121 1    
   117   59   60 am   BACKBONE|DICT|INTERRES
   118   59  122 1    
   119   60   61 2    
   120   60   62 1    
   121   62   63 1    
   122   62   64 1    
   123   62  123 1    
   124   63  124 1    
   125   63  125 1    
   126   63  126 1    
   127   64   65 am   BACKBONE|DICT|INTERRES
   128   64  127 1    
   129   65   66 2    
@<TRIPOS>SUBSTRUCTURE
     1 UNK         1 GROUP             0       ****    0 ROOT    
