@<TRIPOS>MOLECULE
3R134
127   129    1
SMALL
USER_CHARGES


@<TRIPOS>ATOM
      1 CA         29.2765  -46.1462  -53.9175 C.3       0 UNK        -0.1968 
      2 C          30.0861  -46.0216  -52.6403 C.2       0 UNK         0.4852 
      3 O          29.7306  -46.6141  -51.6209 O.2       0 UNK        -0.5359 
      4 N          31.1588  -45.2238  -52.6889 N.am      1 UNK        -0.4300 
      5 CA         31.9738  -44.8509  -51.5262 C.3       1 UNK         0.0863 
      6 C6         32.7182  -43.5102  -51.7428 C.3       11 UNK        -0.0953 
      7 S7         31.5806  -42.1589  -52.2116 S.3       11 UNK        -0.2369 
      8 C8         32.1721  -41.7029  -53.8726 C.3       11 UNK         0.0226 
      9 C9         32.0059  -42.8223  -54.8928 C.ar      11 UNK        -0.0699 
     10 C10        33.1062  -43.6023  -55.2606 C.ar      11 UNK        -0.0804 
     11 C11        32.9811  -44.5981  -56.2326 C.ar      11 UNK        -0.0871 
     12 C12        31.7433  -44.8030  -56.8482 C.ar      11 UNK        -0.1008 
     13 C13        30.6306  -44.0383  -56.4854 C.ar      11 UNK        -0.0735 
     14 C14        30.7668  -43.0531  -55.5000 C.ar      11 UNK        -0.0945 
     15 C15        29.2839  -44.2888  -57.1526 C.3       11 UNK         0.0169 
     16 S16        28.7217  -42.8416  -58.1012 S.3       11 UNK        -0.2669 
     17 C17        27.1751  -43.4585  -58.8512 C.3       11 UNK        -0.0850 
     18 CA         25.9264  -43.1652  -57.9736 C.3       10 UNK         0.0855 
     19 C          24.6047  -43.2188  -58.7973 C.2       10 UNK         0.5543 
     20 N          23.5657  -43.9268  -58.3678 N.am      10 UNK        -0.7343 
     21 O          24.5073  -42.5798  -59.8423 O.2       10 UNK        -0.5027 
     22 N          25.8978  -44.0427  -56.7951 N.am      10 UNK        -0.4495 
     23 C          25.6079  -43.6613  -55.5450 C.2       10 UNK         0.4903 
     24 O          25.4140  -42.4897  -55.2171 O.2       10 UNK        -0.4860 
     25 CA         25.5263  -44.7744  -54.4743 C.3       9 UNK         0.0227 
     26 CB         24.5935  -44.4000  -53.3027 C.3       9 UNK        -0.1964 
     27 N          25.1794  -46.1000  -55.0097 N.am      9 UNK        -0.4231 
     28 C          24.0702  -46.4289  -55.6899 C.2       9 UNK         0.5014 
     29 O          23.1568  -45.6368  -55.9312 O.2       9 UNK        -0.5270 
     30 CA         24.0029  -47.8718  -56.2345 C.3       8 UNK         0.0284 
     31 CB         22.8920  -48.0463  -57.2918 C.3       8 UNK        -0.1977 
     32 N          25.2773  -48.3772  -56.7704 N.am      8 UNK        -0.4342 
     33 C          26.0704  -47.7960  -57.6829 C.2       8 UNK         0.5039 
     34 O          25.9089  -46.6499  -58.1045 O.2       8 UNK        -0.5547 
     35 CA         27.2622  -48.6335  -58.1788 C.3       7 UNK         0.0281 
     36 CB         27.9880  -47.9789  -59.3694 C.3       7 UNK        -0.1963 
     37 N          28.2341  -48.8714  -57.1139 N.am      7 UNK        -0.4444 
     38 C          28.1330  -49.7626  -56.1235 C.2       7 UNK         0.5104 
     39 O          27.1528  -50.4972  -55.9825 O.2       7 UNK        -0.5100 
     40 CA         29.3145  -49.8312  -55.1282 C.3       6 UNK         0.0396 
     41 CB         29.1588  -50.9713  -54.1070 C.3       6 UNK        -0.1801 
     42 N          30.6368  -49.9395  -55.7592 N.am      6 UNK        -0.4747 
     43 C          31.2748  -48.9844  -56.4547 C.2       6 UNK         0.5012 
     44 O          30.7717  -47.8902  -56.7116 O.2       6 UNK        -0.5003 
     45 CA         32.6849  -49.3196  -56.9736 C.3       5 UNK         0.0782 
     46 C46        33.5447  -48.0825  -57.3489 C.3       11 UNK        -0.0868 
     47 S47        34.1349  -47.1029  -55.9211 S.3       11 UNK        -0.2515 
     48 C48        34.1931  -45.4276  -56.6323 C.3       11 UNK         0.0199 
     49 N          33.3771  -50.2285  -56.0583 N.am      5 UNK        -0.4607 
     50 C          34.1411  -51.2578  -56.4443 C.2       4 UNK         0.5031 
     51 O          34.3008  -51.5770  -57.6231 O.2       4 UNK        -0.5119 
     52 CA         34.8679  -52.0723  -55.3561 C.3       4 UNK         0.0263 
     53 CB         36.3743  -51.7629  -55.3772 C.3       4 UNK        -0.1967 
     54 N          34.3623  -51.8500  -54.0005 N.am      4 UNK        -0.4237 
     55 C          33.1685  -52.2502  -53.5423 C.2       3 UNK         0.4908 
     56 O          32.3580  -52.8951  -54.2079 O.2       3 UNK        -0.5102 
     57 CA         32.8058  -51.8309  -52.1057 C.3       3 UNK         0.0241 
     58 CB         33.1790  -52.9444  -51.1136 C.3       3 UNK        -0.1971 
     59 N          33.4166  -50.5668  -51.6708 N.am      3 UNK        -0.4139 
     60 C          33.2330  -49.3780  -52.2624 C.2       2 UNK         0.5016 
     61 O          32.5723  -49.2149  -53.2910 O.2       2 UNK        -0.5319 
     62 CA         33.9388  -48.1787  -51.6236 C.3       2 UNK         0.0286 
     63 CB         35.3664  -48.0218  -52.1743 C.3       2 UNK        -0.1963 
     64 N          33.1625  -46.9804  -51.9250 N.am      2 UNK        -0.4790 
     65 C          32.9483  -45.9632  -51.0822 C.2       1 UNK         0.5024 
     66 O          33.4816  -45.8814  -49.9744 O.2       1 UNK        -0.4888 
     67 H67        28.8632  -45.1749  -54.1817 H         1 UNK         0.0892 
     68 H68        29.9050  -46.4891  -54.7374 H         1 UNK         0.0892 
     69 H69        28.4504  -46.8447  -53.7912 H         1 UNK         0.0892 
     70 H70        31.3974  -44.7570  -53.5545 H         1 UNK         0.3107 
     71 H71        31.2908  -44.7020  -50.6865 H         1 UNK         0.0773 
     72 H72        33.2215  -43.2063  -50.8230 H         1 UNK         0.0680 
     73 H73        33.5052  -43.6180  -52.4893 H         1 UNK         0.0680 
     74 H74        33.2165  -41.3939  -53.8069 H         1 UNK         0.0650 
     75 H75        31.6193  -40.8247  -54.2093 H         1 UNK         0.0650 
     76 H76        34.0681  -43.4242  -54.7993 H         1 UNK         0.1397 
     77 H77        31.6442  -45.5668  -57.6063 H         1 UNK         0.1363 
     78 H78        29.9114  -42.4524  -55.2215 H         1 UNK         0.1355 
     79 H79        28.5453  -44.5314  -56.3908 H         1 UNK         0.0707 
     80 H80        29.3390  -45.1531  -57.8157 H         1 UNK         0.0707 
     81 H81        27.0907  -42.9649  -59.8212 H         1 UNK         0.1034 
     82 H82        27.2588  -44.5242  -59.0708 H         1 UNK         0.1034 
     83 H83        26.0000  -42.1275  -57.6438 H         1 UNK         0.0482 
     84 H84        23.6087  -44.4523  -57.5016 H         1 UNK         0.3460 
     85 H85        22.7205  -43.9370  -58.9154 H         1 UNK         0.3460 
     86 H86        25.9686  -45.0335  -57.0114 H         1 UNK         0.2989 
     87 H87        26.5323  -44.8678  -54.0669 H         1 UNK         0.0559 
     88 H88        23.5721  -44.2211  -53.6404 H         1 UNK         0.0848 
     89 H89        24.9336  -43.4916  -52.8039 H         1 UNK         0.0848 
     90 H90        24.5648  -45.1876  -52.5498 H         1 UNK         0.0848 
     91 H91        25.8768  -46.8206  -54.8901 H         1 UNK         0.3144 
     92 H92        23.7525  -48.5052  -55.3822 H         1 UNK         0.0727 
     93 H93        23.0648  -47.4122  -58.1627 H         1 UNK         0.0790 
     94 H94        21.9148  -47.7833  -56.8847 H         1 UNK         0.0790 
     95 H95        22.8293  -49.0786  -57.6361 H         1 UNK         0.0790 
     96 H96        25.5684  -49.2930  -56.4390 H         1 UNK         0.3215 
     97 H97        26.8677  -49.5942  -58.5171 H         1 UNK         0.0863 
     98 H98        28.7830  -48.6202  -59.7503 H         1 UNK         0.0808 
     99 H99        28.4328  -47.0219  -59.0961 H         1 UNK         0.0808 
    100 H100       27.2980  -47.7942  -60.1939 H         1 UNK         0.0808 
    101 H101       29.0812  -48.3050  -57.1262 H         1 UNK         0.3118 
    102 H102       29.2995  -48.8986  -54.5655 H         1 UNK         0.0546 
    103 H103       29.9413  -50.9264  -53.3510 H         1 UNK         0.0828 
    104 H104       29.2052  -51.9509  -54.5841 H         1 UNK         0.0828 
    105 H105       28.2052  -50.9056  -53.5815 H         1 UNK         0.0828 
    106 H106       31.1229  -50.8141  -55.6162 H         1 UNK         0.3005 
    107 H107       32.4878  -49.8538  -57.9060 H         1 UNK         0.1257 
    108 H108       32.9982  -47.4415  -58.0418 H         1 UNK         0.0775 
    109 H109       34.4259  -48.4141  -57.9001 H         1 UNK         0.0775 
    110 H110       35.1095  -44.9444  -56.2900 H         1 UNK         0.0840 
    111 H111       34.2728  -45.4734  -57.7193 H         1 UNK         0.0840 
    112 H112       33.2720  -50.0087  -55.0720 H         1 UNK         0.2987 
    113 H113       34.7304  -53.1284  -55.5981 H         1 UNK         0.0785 
    114 H114       36.7996  -51.9557  -56.3633 H         1 UNK         0.0798 
    115 H115       36.9187  -52.3846  -54.6661 H         1 UNK         0.0798 
    116 H116       36.5746  -50.7181  -55.1354 H         1 UNK         0.0798 
    117 H117       34.9551  -51.3210  -53.3781 H         1 UNK         0.3079 
    118 H118       31.7236  -51.6975  -52.0703 H         1 UNK         0.0794 
    119 H119       34.2570  -53.1064  -51.0736 H         1 UNK         0.0786 
    120 H120       32.7177  -53.8914  -51.3980 H         1 UNK         0.0786 
    121 H121       32.8357  -52.7107  -50.1056 H         1 UNK         0.0786 
    122 H122       33.9879  -50.6106  -50.8387 H         1 UNK         0.3032 
    123 H123       33.9775  -48.3360  -50.5431 H         1 UNK         0.1094 
    124 H124       35.9744  -48.8986  -51.9485 H         1 UNK         0.0794 
    125 H125       35.3689  -47.8917  -53.2570 H         1 UNK         0.0794 
    126 H126       35.8671  -47.1593  -51.7341 H         1 UNK         0.0794 
    127 H127       32.6452  -47.0236  -52.7949 H         1 UNK         0.3016 
@<TRIPOS>BOND
     1    1    2 1    
     2    1   67 1    
     3    1   68 1    
     4    1   69 1    
     5    2    3 2    
     6    2    4 am   BACKBONE|DICT|INTERRES
     7    4    5 1    
     8    4   70 1    
     9    5    6 1    
    10    5   65 1    
    11    5   71 1    
    12    6    7 1    
    13    6   72 1    
    14    6   73 1    
    15    7    8 1    
    16    8    9 1    
    17    8   74 1    
    18    8   75 1    
    19    9   10 ar   
    20    9   14 ar   
    21   10   11 ar   
    22   10   76 1    
    23   11   12 ar   
    24   11   48 1    
    25   12   13 ar   
    26   12   77 1    
    27   13   14 ar   
    28   13   15 1    
    29   14   78 1    
    30   15   16 1    
    31   15   79 1    
    32   15   80 1    
    33   16   17 1    
    34   17   18 1    
    35   17   81 1    
    36   17   82 1    
    37   18   19 1    
    38   18   22 1    
    39   18   83 1    
    40   19   20 am   BACKBONE|DICT|INTERRES
    41   19   21 2    
    42   20   84 1    
    43   20   85 1    
    44   22   23 am   BACKBONE|DICT|INTERRES
    45   22   86 1    
    46   23   24 2    
    47   23   25 1    
    48   25   26 1    
    49   25   27 1    
    50   25   87 1    
    51   26   88 1    
    52   26   89 1    
    53   26   90 1    
    54   27   28 am   BACKBONE|DICT|INTERRES
    55   27   91 1    
    56   28   29 2    
    57   28   30 1    
    58   30   31 1    
    59   30   32 1    
    60   30   92 1    
    61   31   93 1    
    62   31   94 1    
    63   31   95 1    
    64   32   33 am   BACKBONE|DICT|INTERRES
    65   32   96 1    
    66   33   34 2    
    67   33   35 1    
    68   35   36 1    
    69   35   37 1    
    70   35   97 1    
    71   36   98 1    
    72   36   99 1    
    73   36  100 1    
    74   37   38 am   BACKBONE|DICT|INTERRES
    75   37  101 1    
    76   38   39 2    
    77   38   40 1    
    78   40   41 1    
    79   40   42 1    
    80   40  102 1    
    81   41  103 1    
    82   41  104 1    
    83   41  105 1    
    84   42   43 am   BACKBONE|DICT|INTERRES
    85   42  106 1    
    86   43   44 2    
    87   43   45 1    
    88   45   46 1    
    89   45   49 1    
    90   45  107 1    
    91   46   47 1    
    92   46  108 1    
    93   46  109 1    
    94   47   48 1    
    95   48  110 1    
    96   48  111 1    
    97   49   50 am   BACKBONE|DICT|INTERRES
    98   49  112 1    
    99   50   51 2    
   100   50   52 1    
   101   52   53 1    
   102   52   54 1    
   103   52  113 1    
   104   53  114 1    
   105   53  115 1    
   106   53  116 1    
   107   54   55 am   BACKBONE|DICT|INTERRES
   108   54  117 1    
   109   55   56 2    
   110   55   57 1    
   111   57   58 1    
   112   57   59 1    
   113   57  118 1    
   114   58  119 1    
   115   58  120 1    
   116   58  121 1    
   117   59   60 am   BACKBONE|DICT|INTERRES
   118   59  122 1    
   119   60   61 2    
   120   60   62 1    
   121   62   63 1    
   122   62   64 1    
   123   62  123 1    
   124   63  124 1    
   125   63  125 1    
   126   63  126 1    
   127   64   65 am   BACKBONE|DICT|INTERRES
   128   64  127 1    
   129   65   66 2    
@<TRIPOS>SUBSTRUCTURE
     1 UNK         1 GROUP             0       ****    0 ROOT    
