@<TRIPOS>MOLECULE
3R134
127   129    1
SMALL
USER_CHARGES


@<TRIPOS>ATOM
      1 CA         32.9911  -47.5594  -48.2350 C.3       0 UNK        -0.1968 
      2 C          32.4050  -46.7974  -49.4141 C.2       0 UNK         0.4852 
      3 O          31.2366  -46.4095  -49.3686 O.2       0 UNK        -0.5359 
      4 N          33.2018  -46.5967  -50.4745 N.am      1 UNK        -0.4300 
      5 CA         32.8822  -45.8865  -51.7224 C.3       1 UNK         0.0863 
      6 C6         32.4703  -44.4061  -51.4989 C.3       11 UNK        -0.0953 
      7 S7         32.7844  -43.3685  -52.9645 S.3       11 UNK        -0.2369 
      8 C8         31.0993  -43.2157  -53.6277 C.3       11 UNK         0.0226 
      9 C9         31.1043  -43.0681  -55.1395 C.ar      11 UNK        -0.0699 
     10 C10        31.4428  -44.1641  -55.9368 C.ar      11 UNK        -0.0804 
     11 C11        31.4112  -44.0697  -57.3294 C.ar      11 UNK        -0.0871 
     12 C12        31.0506  -42.8578  -57.9247 C.ar      11 UNK        -0.1008 
     13 C13        30.7200  -41.7489  -57.1385 C.ar      11 UNK        -0.0735 
     14 C14        30.7463  -41.8599  -55.7445 C.ar      11 UNK        -0.0945 
     15 C15        30.3567  -40.4244  -57.7953 C.3       11 UNK         0.0169 
     16 S16        28.5638  -40.1044  -57.7730 S.3       11 UNK        -0.2669 
     17 C17        27.9233  -41.4354  -58.8499 C.3       11 UNK        -0.0850 
     18 CA         26.9367  -42.3828  -58.1169 C.3       10 UNK         0.0855 
     19 C          26.3518  -43.4514  -59.0892 C.2       10 UNK         0.5543 
     20 N          26.4547  -44.7472  -58.8146 N.am      10 UNK        -0.7343 
     21 O          25.7822  -43.0930  -60.1171 O.2       10 UNK        -0.5027 
     22 N          27.5113  -42.9424  -56.8828 N.am      10 UNK        -0.4495 
     23 C          26.7841  -43.3540  -55.8402 C.2       10 UNK         0.4903 
     24 O          25.5618  -43.2192  -55.7483 O.2       10 UNK        -0.4860 
     25 CA         27.5501  -44.0558  -54.7075 C.3       9 UNK         0.0227 
     26 CB         27.6036  -43.1669  -53.4544 C.3       9 UNK        -0.1964 
     27 N          26.9342  -45.3401  -54.3699 N.am      9 UNK        -0.4231 
     28 C          26.8061  -46.3625  -55.2248 C.2       9 UNK         0.5014 
     29 O          27.2517  -46.3622  -56.3771 O.2       9 UNK        -0.5270 
     30 CA         26.0311  -47.5808  -54.7162 C.3       8 UNK         0.0284 
     31 CB         24.5133  -47.3282  -54.7480 C.3       8 UNK        -0.1977 
     32 N          26.3569  -48.7044  -55.5827 N.am      8 UNK        -0.4342 
     33 C          26.4262  -49.9900  -55.2303 C.2       8 UNK         0.5039 
     34 O          26.2095  -50.4069  -54.0920 O.2       8 UNK        -0.5547 
     35 CA         26.8085  -50.9798  -56.3359 C.3       7 UNK         0.0281 
     36 CB         26.4249  -50.4976  -57.7562 C.3       7 UNK        -0.1963 
     37 N          28.2417  -51.2368  -56.2445 N.am      7 UNK        -0.4444 
     38 C          28.8877  -52.2365  -56.8565 C.2       7 UNK         0.5104 
     39 O          28.3275  -53.1057  -57.5275 O.2       7 UNK        -0.5100 
     40 CA         30.4189  -52.2575  -56.6934 C.3       6 UNK         0.0396 
     41 CB         31.1313  -53.1515  -57.7296 C.3       6 UNK        -0.1801 
     42 N          30.9974  -50.9104  -56.6735 N.am      6 UNK        -0.4747 
     43 C          30.9933  -49.9819  -57.6439 C.2       6 UNK         0.5012 
     44 O          30.5226  -50.1617  -58.7672 O.2       6 UNK        -0.5003 
     45 CA         31.6243  -48.6134  -57.2938 C.3       5 UNK         0.0782 
     46 C46        30.5410  -47.5207  -57.0595 C.3       11 UNK        -0.0868 
     47 S47        30.3951  -46.3882  -58.4811 S.3       11 UNK        -0.2515 
     48 C48        31.7984  -45.2621  -58.1919 C.3       11 UNK         0.0199 
     49 N          32.5495  -48.7017  -56.1570 N.am      5 UNK        -0.4607 
     50 C          33.7501  -49.2980  -56.1917 C.2       4 UNK         0.5031 
     51 O          34.2762  -49.7218  -57.2205 O.2       4 UNK        -0.5119 
     52 CA         34.4566  -49.5007  -54.8415 C.3       4 UNK         0.0263 
     53 CB         35.3004  -48.2701  -54.4697 C.3       4 UNK        -0.1967 
     54 N          33.4992  -49.8002  -53.7708 N.am      4 UNK        -0.4237 
     55 C          32.8827  -50.9830  -53.6200 C.2       3 UNK         0.4908 
     56 O          33.1174  -51.9679  -54.3188 O.2       3 UNK        -0.5102 
     57 CA         31.8036  -51.0884  -52.5282 C.3       3 UNK         0.0241 
     58 CB         32.4202  -51.5829  -51.2098 C.3       3 UNK        -0.1971 
     59 N          31.0994  -49.8279  -52.2888 N.am      3 UNK        -0.4139 
     60 C          30.2268  -49.2564  -53.1313 C.2       2 UNK         0.5016 
     61 O          29.8716  -49.7494  -54.2026 O.2       2 UNK        -0.5319 
     62 CA         29.7062  -47.8680  -52.7219 C.3       2 UNK         0.0286 
     63 CB         28.4969  -48.0074  -51.7847 C.3       2 UNK        -0.1963 
     64 N          30.7263  -47.0383  -52.0687 N.am      2 UNK        -0.4790 
     65 C          31.8885  -46.6614  -52.6170 C.2       1 UNK         0.5024 
     66 O          32.2114  -46.9598  -53.7668 O.2       1 UNK        -0.4888 
     67 H67        32.4115  -48.4627  -48.0466 H         1 UNK         0.0892 
     68 H68        34.0267  -47.8510  -48.4094 H         1 UNK         0.0892 
     69 H69        32.9598  -46.9416  -47.3380 H         1 UNK         0.0892 
     70 H70        34.1442  -46.9609  -50.4348 H         1 UNK         0.3107 
     71 H71        33.8280  -45.8785  -52.2675 H         1 UNK         0.0773 
     72 H72        31.4308  -44.3182  -51.1774 H         1 UNK         0.0680 
     73 H73        33.0633  -43.9804  -50.6880 H         1 UNK         0.0680 
     74 H74        30.6048  -42.3691  -53.1495 H         1 UNK         0.0650 
     75 H75        30.5167  -44.1014  -53.3723 H         1 UNK         0.0650 
     76 H76        31.7397  -45.0886  -55.4648 H         1 UNK         0.1397 
     77 H77        31.0391  -42.7757  -59.0031 H         1 UNK         0.1363 
     78 H78        30.4851  -41.0057  -55.1346 H         1 UNK         0.1355 
     79 H79        30.8639  -39.6124  -57.2722 H         1 UNK         0.0707 
     80 H80        30.7160  -40.3910  -58.8251 H         1 UNK         0.0707 
     81 H81        28.7470  -42.0031  -59.2828 H         1 UNK         0.1034 
     82 H82        27.4243  -40.9559  -59.6942 H         1 UNK         0.1034 
     83 H83        26.0831  -41.7679  -57.8249 H         1 UNK         0.0482 
     84 H84        26.8972  -45.0752  -57.9634 H         1 UNK         0.3460 
     85 H85        26.0677  -45.4150  -59.4613 H         1 UNK         0.3460 
     86 H86        28.5121  -43.0832  -56.8825 H         1 UNK         0.2989 
     87 H87        28.5690  -44.2602  -55.0392 H         1 UNK         0.0559 
     88 H88        28.1647  -43.6412  -52.6493 H         1 UNK         0.0848 
     89 H89        28.0894  -42.2154  -53.6746 H         1 UNK         0.0848 
     90 H90        26.6052  -42.9400  -53.0779 H         1 UNK         0.0848 
     91 H91        26.4953  -45.4051  -53.4632 H         1 UNK         0.3144 
     92 H92        26.3443  -47.7943  -53.6946 H         1 UNK         0.0727 
     93 H93        23.9596  -48.2002  -54.3991 H         1 UNK         0.0790 
     94 H94        24.1663  -47.0927  -55.7551 H         1 UNK         0.0790 
     95 H95        24.2382  -46.4920  -54.1041 H         1 UNK         0.0790 
     96 H96        26.6354  -48.4250  -56.5160 H         1 UNK         0.3215 
     97 H97        26.2724  -51.9087  -56.1300 H         1 UNK         0.0863 
     98 H98        27.0481  -49.6675  -58.0917 H         1 UNK         0.0808 
     99 H99        25.3836  -50.1746  -57.7966 H         1 UNK         0.0808 
    100 H100       26.5323  -51.2989  -58.4872 H         1 UNK         0.0808 
    101 H101       28.7733  -50.6157  -55.6369 H         1 UNK         0.3118 
    102 H102       30.6113  -52.6813  -55.7068 H         1 UNK         0.0546 
    103 H103       32.2109  -53.1466  -57.5795 H         1 UNK         0.0828 
    104 H104       30.9317  -52.8278  -58.7514 H         1 UNK         0.0828 
    105 H105       30.7982  -54.1866  -57.6467 H         1 UNK         0.0828 
    106 H106       31.3620  -50.6208  -55.7760 H         1 UNK         0.3005 
    107 H107       32.2291  -48.3402  -58.1618 H         1 UNK         0.1257 
    108 H108       30.7522  -46.9318  -56.1687 H         1 UNK         0.0775 
    109 H109       29.5561  -47.9528  -56.8684 H         1 UNK         0.0775 
    110 H110       32.1669  -44.9149  -59.1584 H         1 UNK         0.0840 
    111 H111       32.6279  -45.8041  -57.7347 H         1 UNK         0.0840 
    112 H112       32.2313  -48.3070  -55.2786 H         1 UNK         0.2987 
    113 H113       35.1329  -50.3524  -54.9446 H         1 UNK         0.0785 
    114 H114       36.0695  -48.0897  -55.2220 H         1 UNK         0.0798 
    115 H115       34.7000  -47.3632  -54.4021 H         1 UNK         0.0798 
    116 H116       35.8091  -48.4100  -53.5159 H         1 UNK         0.0798 
    117 H117       33.2233  -49.0287  -53.1819 H         1 UNK         0.3079 
    118 H118       31.0699  -51.8260  -52.8615 H         1 UNK         0.0794 
    119 H119       31.6559  -51.7388  -50.4482 H         1 UNK         0.0786 
    120 H120       33.1516  -50.8774  -50.8132 H         1 UNK         0.0786 
    121 H121       32.9313  -52.5364  -51.3521 H         1 UNK         0.0786 
    122 H122       31.3079  -49.3442  -51.4278 H         1 UNK         0.3032 
    123 H123       29.3888  -47.3601  -53.6354 H         1 UNK         0.1094 
    124 H124       28.7912  -48.3655  -50.7974 H         1 UNK         0.0794 
    125 H125       27.9851  -47.0539  -51.6546 H         1 UNK         0.0794 
    126 H126       27.7714  -48.7209  -52.1778 H         1 UNK         0.0794 
    127 H127       30.5741  -46.7816  -51.0949 H         1 UNK         0.3016 
@<TRIPOS>BOND
     1    1    2 1    
     2    1   67 1    
     3    1   68 1    
     4    1   69 1    
     5    2    3 2    
     6    2    4 am   BACKBONE|DICT|INTERRES
     7    4    5 1    
     8    4   70 1    
     9    5    6 1    
    10    5   65 1    
    11    5   71 1    
    12    6    7 1    
    13    6   72 1    
    14    6   73 1    
    15    7    8 1    
    16    8    9 1    
    17    8   74 1    
    18    8   75 1    
    19    9   10 ar   
    20    9   14 ar   
    21   10   11 ar   
    22   10   76 1    
    23   11   12 ar   
    24   11   48 1    
    25   12   13 ar   
    26   12   77 1    
    27   13   14 ar   
    28   13   15 1    
    29   14   78 1    
    30   15   16 1    
    31   15   79 1    
    32   15   80 1    
    33   16   17 1    
    34   17   18 1    
    35   17   81 1    
    36   17   82 1    
    37   18   19 1    
    38   18   22 1    
    39   18   83 1    
    40   19   20 am   BACKBONE|DICT|INTERRES
    41   19   21 2    
    42   20   84 1    
    43   20   85 1    
    44   22   23 am   BACKBONE|DICT|INTERRES
    45   22   86 1    
    46   23   24 2    
    47   23   25 1    
    48   25   26 1    
    49   25   27 1    
    50   25   87 1    
    51   26   88 1    
    52   26   89 1    
    53   26   90 1    
    54   27   28 am   BACKBONE|DICT|INTERRES
    55   27   91 1    
    56   28   29 2    
    57   28   30 1    
    58   30   31 1    
    59   30   32 1    
    60   30   92 1    
    61   31   93 1    
    62   31   94 1    
    63   31   95 1    
    64   32   33 am   BACKBONE|DICT|INTERRES
    65   32   96 1    
    66   33   34 2    
    67   33   35 1    
    68   35   36 1    
    69   35   37 1    
    70   35   97 1    
    71   36   98 1    
    72   36   99 1    
    73   36  100 1    
    74   37   38 am   BACKBONE|DICT|INTERRES
    75   37  101 1    
    76   38   39 2    
    77   38   40 1    
    78   40   41 1    
    79   40   42 1    
    80   40  102 1    
    81   41  103 1    
    82   41  104 1    
    83   41  105 1    
    84   42   43 am   BACKBONE|DICT|INTERRES
    85   42  106 1    
    86   43   44 2    
    87   43   45 1    
    88   45   46 1    
    89   45   49 1    
    90   45  107 1    
    91   46   47 1    
    92   46  108 1    
    93   46  109 1    
    94   47   48 1    
    95   48  110 1    
    96   48  111 1    
    97   49   50 am   BACKBONE|DICT|INTERRES
    98   49  112 1    
    99   50   51 2    
   100   50   52 1    
   101   52   53 1    
   102   52   54 1    
   103   52  113 1    
   104   53  114 1    
   105   53  115 1    
   106   53  116 1    
   107   54   55 am   BACKBONE|DICT|INTERRES
   108   54  117 1    
   109   55   56 2    
   110   55   57 1    
   111   57   58 1    
   112   57   59 1    
   113   57  118 1    
   114   58  119 1    
   115   58  120 1    
   116   58  121 1    
   117   59   60 am   BACKBONE|DICT|INTERRES
   118   59  122 1    
   119   60   61 2    
   120   60   62 1    
   121   62   63 1    
   122   62   64 1    
   123   62  123 1    
   124   63  124 1    
   125   63  125 1    
   126   63  126 1    
   127   64   65 am   BACKBONE|DICT|INTERRES
   128   64  127 1    
   129   65   66 2    
@<TRIPOS>SUBSTRUCTURE
     1 UNK         1 GROUP             0       ****    0 ROOT    
