@<TRIPOS>MOLECULE
3R134
127   129    1
SMALL
USER_CHARGES


@<TRIPOS>ATOM
      1 CA         37.6512  -46.5984  -52.5571 C.3       0 UNK        -0.1968 
      2 C          36.8438  -45.4184  -52.0205 C.2       0 UNK         0.4852 
      3 O          37.2846  -44.7727  -51.0710 O.2       0 UNK        -0.5359 
      4 N          35.6724  -45.0863  -52.5846 N.am      1 UNK        -0.4300 
      5 CA         34.9828  -45.7685  -53.6902 C.3       1 UNK         0.0863 
      6 C6         33.8202  -44.9190  -54.2499 C.3       11 UNK        -0.0953 
      7 S7         34.3807  -43.3184  -54.9265 S.3       11 UNK        -0.2369 
      8 C8         33.5097  -42.1191  -53.8658 C.3       11 UNK         0.0226 
      9 C9         31.9995  -42.2959  -53.9329 C.ar      11 UNK        -0.0699 
     10 C10        31.2986  -42.7880  -52.8285 C.ar      11 UNK        -0.0804 
     11 C11        29.9196  -43.0041  -52.8991 C.ar      11 UNK        -0.0871 
     12 C12        29.2379  -42.7086  -54.0849 C.ar      11 UNK        -0.1008 
     13 C13        29.9291  -42.2115  -55.1947 C.ar      11 UNK        -0.0735 
     14 C14        31.3072  -41.9960  -55.1086 C.ar      11 UNK        -0.0945 
     15 C15        29.1991  -41.9259  -56.4964 C.3       11 UNK         0.0169 
     16 S16        29.5181  -43.2395  -57.7133 S.3       11 UNK        -0.2669 
     17 C17        28.4367  -42.7120  -59.0871 C.3       11 UNK        -0.0850 
     18 CA         27.0568  -43.4353  -59.0675 C.3       10 UNK         0.0855 
     19 C          26.0500  -42.9241  -60.1463 C.2       10 UNK         0.5543 
     20 N          26.1011  -41.6534  -60.5256 N.am      10 UNK        -0.7343 
     21 O          25.1743  -43.6544  -60.6067 O.2       10 UNK        -0.5027 
     22 N          27.1959  -44.9014  -59.0371 N.am      10 UNK        -0.4495 
     23 C          27.6479  -45.6881  -60.0241 C.2       10 UNK         0.4903 
     24 O          28.0114  -45.2696  -61.1244 O.2       10 UNK        -0.4860 
     25 CA         27.7429  -47.2015  -59.7384 C.3       9 UNK         0.0227 
     26 CB         29.2103  -47.6619  -59.7711 C.3       9 UNK        -0.1964 
     27 N          27.1489  -47.6038  -58.4580 N.am      9 UNK        -0.4231 
     28 C          25.8322  -47.7083  -58.2254 C.2       9 UNK         0.5014 
     29 O          24.9695  -47.4915  -59.0787 O.2       9 UNK        -0.5270 
     30 CA         25.4240  -48.1094  -56.7952 C.3       8 UNK         0.0284 
     31 CB         23.9019  -48.3022  -56.6237 C.3       8 UNK        -0.1977 
     32 N          26.1588  -49.2822  -56.3115 N.am      8 UNK        -0.4342 
     33 C          26.1691  -50.5172  -56.8376 C.2       8 UNK         0.5039 
     34 O          25.4984  -50.8538  -57.8146 O.2       8 UNK        -0.5547 
     35 CA         27.0937  -51.5640  -56.1863 C.3       7 UNK         0.0281 
     36 CB         28.2344  -51.9315  -57.1507 C.3       7 UNK        -0.1963 
     37 N          27.6719  -51.1337  -54.9099 N.am      7 UNK        -0.4444 
     38 C          27.0132  -51.0722  -53.7448 C.2       7 UNK         0.5104 
     39 O          25.8464  -51.4363  -53.5974 O.2       7 UNK        -0.5100 
     40 CA         27.7717  -50.4582  -52.5522 C.3       6 UNK         0.0396 
     41 CB         28.6461  -51.5164  -51.8632 C.3       6 UNK        -0.1801 
     42 N          28.5925  -49.2953  -52.9140 N.am      6 UNK        -0.4747 
     43 C          28.1154  -48.1562  -53.4425 C.2       6 UNK         0.5012 
     44 O          26.9272  -47.9706  -53.7043 O.2       6 UNK        -0.5003 
     45 CA         29.1461  -47.0669  -53.7983 C.3       5 UNK         0.0782 
     46 C46        29.5850  -46.2518  -52.5558 C.3       11 UNK        -0.0868 
     47 S47        28.2722  -45.0954  -52.0252 S.3       11 UNK        -0.2515 
     48 C48        29.1779  -43.5504  -51.6851 C.3       11 UNK         0.0199 
     49 N          30.2769  -47.6631  -54.5120 N.am      5 UNK        -0.4607 
     50 C          30.2047  -48.1008  -55.7777 C.2       4 UNK         0.5031 
     51 O          29.2103  -47.9567  -56.4910 O.2       4 UNK        -0.5119 
     52 CA         31.4187  -48.8704  -56.3279 C.3       4 UNK         0.0263 
     53 CB         32.4076  -47.9231  -57.0221 C.3       4 UNK        -0.1967 
     54 N          32.1155  -49.6498  -55.2993 N.am      4 UNK        -0.4237 
     55 C          31.5905  -50.7383  -54.7167 C.2       3 UNK         0.4908 
     56 O          30.4930  -51.2035  -55.0154 O.2       3 UNK        -0.5102 
     57 CA         32.3872  -51.4054  -53.5838 C.3       3 UNK         0.0241 
     58 CB         33.3220  -52.4846  -54.1519 C.3       3 UNK        -0.1971 
     59 N          33.1611  -50.4759  -52.7606 N.am      3 UNK        -0.4139 
     60 C          32.6813  -49.4096  -52.1049 C.2       2 UNK         0.5016 
     61 O          31.4990  -49.0611  -52.1265 O.2       2 UNK        -0.5319 
     62 CA         33.7052  -48.5644  -51.3236 C.3       2 UNK         0.0286 
     63 CB         34.9818  -49.3441  -50.9350 C.3       2 UNK        -0.1963 
     64 N          34.0810  -47.3231  -52.0136 N.am      2 UNK        -0.4790 
     65 C          34.4691  -47.1675  -53.2912 C.2       1 UNK         0.5024 
     66 O          34.4680  -48.0663  -54.1337 O.2       1 UNK        -0.4888 
     67 H67        37.2121  -47.5428  -52.2381 H         1 UNK         0.0892 
     68 H68        37.7119  -46.5861  -53.6444 H         1 UNK         0.0892 
     69 H69        38.6715  -46.5628  -52.1757 H         1 UNK         0.0892 
     70 H70        35.1920  -44.2758  -52.2228 H         1 UNK         0.3107 
     71 H71        35.7003  -45.9103  -54.5003 H         1 UNK         0.0773 
     72 H72        33.0663  -44.7653  -53.4782 H         1 UNK         0.0680 
     73 H73        33.3116  -45.4402  -55.0605 H         1 UNK         0.0680 
     74 H74        33.8708  -42.2188  -52.8412 H         1 UNK         0.0650 
     75 H75        33.7690  -41.1092  -54.1866 H         1 UNK         0.0650 
     76 H76        31.8323  -43.0194  -51.9168 H         1 UNK         0.1397 
     77 H77        28.1718  -42.8810  -54.1459 H         1 UNK         0.1363 
     78 H78        31.8476  -41.6262  -55.9695 H         1 UNK         0.1355 
     79 H79        29.5261  -40.9659  -56.8991 H         1 UNK         0.0707 
     80 H80        28.1249  -41.8439  -56.3230 H         1 UNK         0.0707 
     81 H81        28.3182  -41.6294  -59.0324 H         1 UNK         0.1034 
     82 H82        28.9539  -42.9096  -60.0275 H         1 UNK         0.1034 
     83 H83        26.5785  -43.1848  -58.1201 H         1 UNK         0.0482 
     84 H84        26.7826  -41.0153  -60.1478 H         1 UNK         0.3460 
     85 H85        25.4341  -41.3237  -61.2060 H         1 UNK         0.3460 
     86 H86        26.9162  -45.3467  -58.1773 H         1 UNK         0.2989 
     87 H87        27.2094  -47.7177  -60.5391 H         1 UNK         0.0559 
     88 H88        29.8115  -47.1281  -59.0347 H         1 UNK         0.0848 
     89 H89        29.6569  -47.4777  -60.7490 H         1 UNK         0.0848 
     90 H90        29.3001  -48.7295  -59.5694 H         1 UNK         0.0848 
     91 H91        27.8035  -47.7890  -57.6983 H         1 UNK         0.3144 
     92 H92        25.7209  -47.2798  -56.1518 H         1 UNK         0.0727 
     93 H93        23.3623  -47.3884  -56.8752 H         1 UNK         0.0790 
     94 H94        23.6493  -48.5543  -55.5937 H         1 UNK         0.0790 
     95 H95        23.5169  -49.0938  -57.2673 H         1 UNK         0.0790 
     96 H96        26.7317  -49.1151  -55.4924 H         1 UNK         0.3215 
     97 H97        26.4944  -52.4592  -56.0074 H         1 UNK         0.0863 
     98 H98        28.8666  -52.7174  -56.7372 H         1 UNK         0.0808 
     99 H99        28.8681  -51.0705  -57.3682 H         1 UNK         0.0808 
    100 H100       27.8441  -52.2981  -58.1011 H         1 UNK         0.0808 
    101 H101       28.6643  -50.9043  -54.9193 H         1 UNK         0.3118 
    102 H102       27.0284  -50.1138  -51.8303 H         1 UNK         0.0546 
    103 H103       29.3724  -51.9476  -52.5511 H         1 UNK         0.0828 
    104 H104       28.0349  -52.3364  -51.4842 H         1 UNK         0.0828 
    105 H105       29.1898  -51.0977  -51.0161 H         1 UNK         0.0828 
    106 H106       29.5884  -49.3530  -52.7199 H         1 UNK         0.3005 
    107 H107       28.6605  -46.3759  -54.4927 H         1 UNK         0.1257 
    108 H108       30.4852  -45.6832  -52.7910 H         1 UNK         0.0775 
    109 H109       29.8532  -46.9012  -51.7203 H         1 UNK         0.0775 
    110 H110       28.4681  -42.7974  -51.3403 H         1 UNK         0.0840 
    111 H111       29.8628  -43.7260  -50.8539 H         1 UNK         0.0840 
    112 H112       31.0870  -47.8982  -53.9538 H         1 UNK         0.2987 
    113 H113       31.0412  -49.5660  -57.0807 H         1 UNK         0.0785 
    114 H114       32.8869  -47.2515  -56.3130 H         1 UNK         0.0798 
    115 H115       31.9064  -47.3069  -57.7694 H         1 UNK         0.0798 
    116 H116       33.1922  -48.4796  -57.5347 H         1 UNK         0.0798 
    117 H117       33.0122  -49.3000  -54.9761 H         1 UNK         0.3079 
    118 H118       31.6698  -51.8940  -52.9232 H         1 UNK         0.0794 
    119 H119       32.7656  -53.2060  -54.7523 H         1 UNK         0.0786 
    120 H120       33.8159  -53.0424  -53.3560 H         1 UNK         0.0786 
    121 H121       34.0940  -52.0545  -54.7914 H         1 UNK         0.0786 
    122 H122       34.1546  -50.6464  -52.7068 H         1 UNK         0.3032 
    123 H123       33.2034  -48.2727  -50.3992 H         1 UNK         0.1094 
    124 H124       35.6013  -48.7586  -50.2553 H         1 UNK         0.0794 
    125 H125       34.7372  -50.2732  -50.4178 H         1 UNK         0.0794 
    126 H126       35.5967  -49.5938  -51.8004 H         1 UNK         0.0794 
    127 H127       34.0959  -46.4989  -51.4287 H         1 UNK         0.3016 
@<TRIPOS>BOND
     1    1    2 1    
     2    1   67 1    
     3    1   68 1    
     4    1   69 1    
     5    2    3 2    
     6    2    4 am   BACKBONE|DICT|INTERRES
     7    4    5 1    
     8    4   70 1    
     9    5    6 1    
    10    5   65 1    
    11    5   71 1    
    12    6    7 1    
    13    6   72 1    
    14    6   73 1    
    15    7    8 1    
    16    8    9 1    
    17    8   74 1    
    18    8   75 1    
    19    9   10 ar   
    20    9   14 ar   
    21   10   11 ar   
    22   10   76 1    
    23   11   12 ar   
    24   11   48 1    
    25   12   13 ar   
    26   12   77 1    
    27   13   14 ar   
    28   13   15 1    
    29   14   78 1    
    30   15   16 1    
    31   15   79 1    
    32   15   80 1    
    33   16   17 1    
    34   17   18 1    
    35   17   81 1    
    36   17   82 1    
    37   18   19 1    
    38   18   22 1    
    39   18   83 1    
    40   19   20 am   BACKBONE|DICT|INTERRES
    41   19   21 2    
    42   20   84 1    
    43   20   85 1    
    44   22   23 am   BACKBONE|DICT|INTERRES
    45   22   86 1    
    46   23   24 2    
    47   23   25 1    
    48   25   26 1    
    49   25   27 1    
    50   25   87 1    
    51   26   88 1    
    52   26   89 1    
    53   26   90 1    
    54   27   28 am   BACKBONE|DICT|INTERRES
    55   27   91 1    
    56   28   29 2    
    57   28   30 1    
    58   30   31 1    
    59   30   32 1    
    60   30   92 1    
    61   31   93 1    
    62   31   94 1    
    63   31   95 1    
    64   32   33 am   BACKBONE|DICT|INTERRES
    65   32   96 1    
    66   33   34 2    
    67   33   35 1    
    68   35   36 1    
    69   35   37 1    
    70   35   97 1    
    71   36   98 1    
    72   36   99 1    
    73   36  100 1    
    74   37   38 am   BACKBONE|DICT|INTERRES
    75   37  101 1    
    76   38   39 2    
    77   38   40 1    
    78   40   41 1    
    79   40   42 1    
    80   40  102 1    
    81   41  103 1    
    82   41  104 1    
    83   41  105 1    
    84   42   43 am   BACKBONE|DICT|INTERRES
    85   42  106 1    
    86   43   44 2    
    87   43   45 1    
    88   45   46 1    
    89   45   49 1    
    90   45  107 1    
    91   46   47 1    
    92   46  108 1    
    93   46  109 1    
    94   47   48 1    
    95   48  110 1    
    96   48  111 1    
    97   49   50 am   BACKBONE|DICT|INTERRES
    98   49  112 1    
    99   50   51 2    
   100   50   52 1    
   101   52   53 1    
   102   52   54 1    
   103   52  113 1    
   104   53  114 1    
   105   53  115 1    
   106   53  116 1    
   107   54   55 am   BACKBONE|DICT|INTERRES
   108   54  117 1    
   109   55   56 2    
   110   55   57 1    
   111   57   58 1    
   112   57   59 1    
   113   57  118 1    
   114   58  119 1    
   115   58  120 1    
   116   58  121 1    
   117   59   60 am   BACKBONE|DICT|INTERRES
   118   59  122 1    
   119   60   61 2    
   120   60   62 1    
   121   62   63 1    
   122   62   64 1    
   123   62  123 1    
   124   63  124 1    
   125   63  125 1    
   126   63  126 1    
   127   64   65 am   BACKBONE|DICT|INTERRES
   128   64  127 1    
   129   65   66 2    
@<TRIPOS>SUBSTRUCTURE
     1 UNK         1 GROUP             0       ****    0 ROOT    
