@<TRIPOS>MOLECULE
3R134
127   129    1
SMALL
USER_CHARGES


@<TRIPOS>ATOM
      1 CA         28.2677  -45.1255  -50.4262 C.3       0 UNK        -0.1968 
      2 C          29.7760  -45.1843  -50.2344 C.2       0 UNK         0.4852 
      3 O          30.2484  -45.2299  -49.0970 O.2       0 UNK        -0.5359 
      4 N          30.5309  -45.1781  -51.3400 N.am      1 UNK        -0.4300 
      5 CA         31.9932  -45.2991  -51.3682 C.3       1 UNK         0.0863 
      6 C6         32.5786  -44.8360  -52.7282 C.3       11 UNK        -0.0953 
      7 S7         32.1310  -43.1070  -53.0952 S.3       11 UNK        -0.2369 
      8 C8         33.1447  -42.7644  -54.5668 C.3       11 UNK         0.0226 
      9 C9         32.6254  -43.4638  -55.8166 C.ar      11 UNK        -0.0699 
     10 C10        33.4334  -44.3772  -56.5001 C.ar      11 UNK        -0.0804 
     11 C11        32.9896  -44.9697  -57.6866 C.ar      11 UNK        -0.0871 
     12 C12        31.7134  -44.6701  -58.1709 C.ar      11 UNK        -0.1008 
     13 C13        30.8949  -43.7588  -57.4966 C.ar      11 UNK        -0.0735 
     14 C14        31.3597  -43.1533  -56.3248 C.ar      11 UNK        -0.0945 
     15 C15        29.5314  -43.3985  -58.0676 C.3       11 UNK         0.0169 
     16 S16        28.2165  -44.4683  -57.4116 S.3       11 UNK        -0.2669 
     17 C17        27.6518  -43.5118  -55.9613 C.3       11 UNK        -0.0850 
     18 CA         26.9994  -44.4013  -54.8647 C.3       10 UNK         0.0855 
     19 C          26.6673  -43.6091  -53.5641 C.2       10 UNK         0.5543 
     20 N          25.6178  -43.9572  -52.8296 N.am      10 UNK        -0.7343 
     21 O          27.3930  -42.6920  -53.1891 O.2       10 UNK        -0.5027 
     22 N          25.9027  -45.2427  -55.3784 N.am      10 UNK        -0.4495 
     23 C          24.7423  -44.8155  -55.8949 C.2       10 UNK         0.4903 
     24 O          24.4172  -43.6292  -55.9714 O.2       10 UNK        -0.4860 
     25 CA         23.7873  -45.9139  -56.4052 C.3       9 UNK         0.0227 
     26 CB         22.5135  -45.3499  -57.0707 C.3       9 UNK        -0.1964 
     27 N          24.4554  -46.8794  -57.2873 N.am      9 UNK        -0.4231 
     28 C          25.0755  -46.6430  -58.4539 C.2       9 UNK         0.5014 
     29 O          25.1047  -45.5388  -58.9999 O.2       9 UNK        -0.5270 
     30 CA         25.7725  -47.8469  -59.1316 C.3       8 UNK         0.0284 
     31 CB         26.7757  -47.4079  -60.2151 C.3       8 UNK        -0.1977 
     32 N          26.4659  -48.7216  -58.1788 N.am      8 UNK        -0.4342 
     33 C          25.8786  -49.6308  -57.3852 C.2       8 UNK         0.5039 
     34 O          24.6680  -49.8540  -57.4025 O.2       8 UNK        -0.5547 
     35 CA         26.7569  -50.3700  -56.3565 C.3       7 UNK         0.0281 
     36 CB         27.1483  -51.7578  -56.8866 C.3       7 UNK        -0.1963 
     37 N          27.9665  -49.6349  -55.9779 N.am      7 UNK        -0.4444 
     38 C          27.9800  -48.4171  -55.4127 C.2       7 UNK         0.5104 
     39 O          26.9621  -47.8403  -55.0283 O.2       7 UNK        -0.5100 
     40 CA         29.3377  -47.6989  -55.2815 C.3       6 UNK         0.0396 
     41 CB         29.7730  -47.6838  -53.8120 C.3       6 UNK        -0.1801 
     42 N          30.4121  -48.2687  -56.1024 N.am      6 UNK        -0.4747 
     43 C          30.3965  -48.3646  -57.4434 C.2       6 UNK         0.5012 
     44 O          29.4895  -47.9102  -58.1420 O.2       6 UNK        -0.5003 
     45 CA         31.5086  -49.1947  -58.1240 C.3       5 UNK         0.0782 
     46 C46        32.5086  -48.3110  -58.9123 C.3       11 UNK        -0.0868 
     47 S47        33.8408  -47.5993  -57.8844 S.3       11 UNK        -0.2515 
     48 C48        33.9178  -45.8833  -58.4713 C.3       11 UNK         0.0199 
     49 N          32.1919  -50.1288  -57.2212 N.am      5 UNK        -0.4607 
     50 C          31.6205  -51.1315  -56.5434 C.2       4 UNK         0.5031 
     51 O          30.4365  -51.4453  -56.6675 O.2       4 UNK        -0.5119 
     52 CA         32.4990  -51.8785  -55.5221 C.3       4 UNK         0.0263 
     53 CB         33.0005  -53.2024  -56.1208 C.3       4 UNK        -0.1967 
     54 N          33.6466  -51.1149  -55.0066 N.am      4 UNK        -0.4237 
     55 C          33.5755  -49.9516  -54.3423 C.2       3 UNK         0.4908 
     56 O          32.5295  -49.3232  -54.1717 O.2       3 UNK        -0.5102 
     57 CA         34.9052  -49.3750  -53.8279 C.3       3 UNK         0.0241 
     58 CB         35.5488  -48.4601  -54.8804 C.3       3 UNK        -0.1971 
     59 N          34.7126  -48.6079  -52.5975 N.am      3 UNK        -0.4139 
     60 C          34.5451  -49.1432  -51.3817 C.2       2 UNK         0.5016 
     61 O          34.5959  -50.3529  -51.1530 O.2       2 UNK        -0.5319 
     62 CA         34.3021  -48.1676  -50.2142 C.3       2 UNK         0.0286 
     63 CB         35.6138  -47.9013  -49.4571 C.3       2 UNK        -0.1963 
     64 N          33.7118  -46.8844  -50.6175 N.am      2 UNK        -0.4790 
     65 C          32.4417  -46.7364  -51.0199 C.2       1 UNK         0.5024 
     66 O          31.6520  -47.6782  -51.1191 O.2       1 UNK        -0.4888 
     67 H67        27.7708  -45.7996  -49.7289 H         1 UNK         0.0892 
     68 H68        27.9038  -44.1147  -50.2437 H         1 UNK         0.0892 
     69 H69        27.9781  -45.4174  -51.4351 H         1 UNK         0.0892 
     70 H70        30.0882  -45.1181  -52.2439 H         1 UNK         0.3107 
     71 H71        32.3901  -44.6428  -50.5903 H         1 UNK         0.0773 
     72 H72        33.6676  -44.9078  -52.7221 H         1 UNK         0.0680 
     73 H73        32.2334  -45.4667  -53.5485 H         1 UNK         0.0680 
     74 H74        34.1804  -43.0395  -54.3612 H         1 UNK         0.0650 
     75 H75        33.1447  -41.6882  -54.7445 H         1 UNK         0.0650 
     76 H76        34.4221  -44.6066  -56.1265 H         1 UNK         0.1397 
     77 H77        31.3635  -45.1272  -59.0864 H         1 UNK         0.1363 
     78 H78        30.7441  -42.4298  -55.8092 H         1 UNK         0.1355 
     79 H79        29.2972  -42.3511  -57.8713 H         1 UNK         0.0707 
     80 H80        29.5491  -43.5024  -59.1536 H         1 UNK         0.0707 
     81 H81        28.5067  -42.9788  -55.5450 H         1 UNK         0.1034 
     82 H82        26.9537  -42.7447  -56.2999 H         1 UNK         0.1034 
     83 H83        27.7628  -45.1092  -54.5436 H         1 UNK         0.0482 
     84 H84        25.4116  -43.4457  -51.9866 H         1 UNK         0.3460 
     85 H85        25.0215  -44.7144  -53.1217 H         1 UNK         0.3460 
     86 H86        26.0887  -46.2425  -55.3407 H         1 UNK         0.2989 
     87 H87        23.4734  -46.4761  -55.5246 H         1 UNK         0.0559 
     88 H88        22.7473  -44.7392  -57.9433 H         1 UNK         0.0848 
     89 H89        21.9563  -44.7207  -56.3755 H         1 UNK         0.0848 
     90 H90        21.8448  -46.1491  -57.3901 H         1 UNK         0.0848 
     91 H91        24.4656  -47.8410  -56.9636 H         1 UNK         0.3144 
     92 H92        24.9890  -48.4268  -59.6237 H         1 UNK         0.0727 
     93 H93        27.5607  -46.7742  -59.7992 H         1 UNK         0.0790 
     94 H94        26.2805  -46.8394  -61.0033 H         1 UNK         0.0790 
     95 H95        27.2530  -48.2660  -60.6884 H         1 UNK         0.0790 
     96 H96        27.4613  -48.5541  -58.0701 H         1 UNK         0.3215 
     97 H97        26.1574  -50.5027  -55.4535 H         1 UNK         0.0863 
     98 H98        27.6994  -52.3279  -56.1382 H         1 UNK         0.0808 
     99 H99        27.7722  -51.6872  -57.7787 H         1 UNK         0.0808 
    100 H100       26.2643  -52.3400  -57.1505 H         1 UNK         0.0808 
    101 H101       28.8520  -50.0595  -56.2321 H         1 UNK         0.3118 
    102 H102       29.1980  -46.6685  -55.6101 H         1 UNK         0.0546 
    103 H103       29.0295  -47.1930  -53.1832 H         1 UNK         0.0828 
    104 H104       30.7132  -47.1517  -53.6870 H         1 UNK         0.0828 
    105 H105       29.9139  -48.6928  -53.4224 H         1 UNK         0.0828 
    106 H106       31.1923  -48.6768  -55.5950 H         1 UNK         0.3005 
    107 H107       30.9842  -49.8120  -58.8573 H         1 UNK         0.1257 
    108 H108       31.9861  -47.5234  -59.4584 H         1 UNK         0.0775 
    109 H109       32.9916  -48.9191  -59.6786 H         1 UNK         0.0775 
    110 H110       34.9450  -45.5303  -58.3675 H         1 UNK         0.0840 
    111 H111       33.6972  -45.8388  -59.5389 H         1 UNK         0.0840 
    112 H112       33.1633  -49.9201  -57.0411 H         1 UNK         0.2987 
    113 H113       31.8590  -52.1114  -54.6685 H         1 UNK         0.0785 
    114 H114       32.1685  -53.8054  -56.4877 H         1 UNK         0.0798 
    115 H115       33.5270  -53.8015  -55.3776 H         1 UNK         0.0798 
    116 H116       33.6765  -53.0352  -56.9604 H         1 UNK         0.0798 
    117 H117       34.5532  -51.5453  -55.1226 H         1 UNK         0.3079 
    118 H118       35.5894  -50.2009  -53.6203 H         1 UNK         0.0794 
    119 H119       34.9199  -47.5962  -55.0994 H         1 UNK         0.0786 
    120 H120       35.7150  -48.9930  -55.8175 H         1 UNK         0.0786 
    121 H121       36.5179  -48.0905  -54.5448 H         1 UNK         0.0786 
    122 H122       34.6103  -47.6095  -52.6943 H         1 UNK         0.3032 
    123 H123       33.6079  -48.6594  -49.5283 H         1 UNK         0.1094 
    124 H124       36.3481  -47.3950  -50.0849 H         1 UNK         0.0794 
    125 H125       35.4447  -47.2865  -48.5727 H         1 UNK         0.0794 
    126 H126       36.0647  -48.8350  -49.1175 H         1 UNK         0.0794 
    127 H127       34.3052  -46.0692  -50.5486 H         1 UNK         0.3016 
@<TRIPOS>BOND
     1    1    2 1    
     2    1   67 1    
     3    1   68 1    
     4    1   69 1    
     5    2    3 2    
     6    2    4 am   BACKBONE|DICT|INTERRES
     7    4    5 1    
     8    4   70 1    
     9    5    6 1    
    10    5   65 1    
    11    5   71 1    
    12    6    7 1    
    13    6   72 1    
    14    6   73 1    
    15    7    8 1    
    16    8    9 1    
    17    8   74 1    
    18    8   75 1    
    19    9   10 ar   
    20    9   14 ar   
    21   10   11 ar   
    22   10   76 1    
    23   11   12 ar   
    24   11   48 1    
    25   12   13 ar   
    26   12   77 1    
    27   13   14 ar   
    28   13   15 1    
    29   14   78 1    
    30   15   16 1    
    31   15   79 1    
    32   15   80 1    
    33   16   17 1    
    34   17   18 1    
    35   17   81 1    
    36   17   82 1    
    37   18   19 1    
    38   18   22 1    
    39   18   83 1    
    40   19   20 am   BACKBONE|DICT|INTERRES
    41   19   21 2    
    42   20   84 1    
    43   20   85 1    
    44   22   23 am   BACKBONE|DICT|INTERRES
    45   22   86 1    
    46   23   24 2    
    47   23   25 1    
    48   25   26 1    
    49   25   27 1    
    50   25   87 1    
    51   26   88 1    
    52   26   89 1    
    53   26   90 1    
    54   27   28 am   BACKBONE|DICT|INTERRES
    55   27   91 1    
    56   28   29 2    
    57   28   30 1    
    58   30   31 1    
    59   30   32 1    
    60   30   92 1    
    61   31   93 1    
    62   31   94 1    
    63   31   95 1    
    64   32   33 am   BACKBONE|DICT|INTERRES
    65   32   96 1    
    66   33   34 2    
    67   33   35 1    
    68   35   36 1    
    69   35   37 1    
    70   35   97 1    
    71   36   98 1    
    72   36   99 1    
    73   36  100 1    
    74   37   38 am   BACKBONE|DICT|INTERRES
    75   37  101 1    
    76   38   39 2    
    77   38   40 1    
    78   40   41 1    
    79   40   42 1    
    80   40  102 1    
    81   41  103 1    
    82   41  104 1    
    83   41  105 1    
    84   42   43 am   BACKBONE|DICT|INTERRES
    85   42  106 1    
    86   43   44 2    
    87   43   45 1    
    88   45   46 1    
    89   45   49 1    
    90   45  107 1    
    91   46   47 1    
    92   46  108 1    
    93   46  109 1    
    94   47   48 1    
    95   48  110 1    
    96   48  111 1    
    97   49   50 am   BACKBONE|DICT|INTERRES
    98   49  112 1    
    99   50   51 2    
   100   50   52 1    
   101   52   53 1    
   102   52   54 1    
   103   52  113 1    
   104   53  114 1    
   105   53  115 1    
   106   53  116 1    
   107   54   55 am   BACKBONE|DICT|INTERRES
   108   54  117 1    
   109   55   56 2    
   110   55   57 1    
   111   57   58 1    
   112   57   59 1    
   113   57  118 1    
   114   58  119 1    
   115   58  120 1    
   116   58  121 1    
   117   59   60 am   BACKBONE|DICT|INTERRES
   118   59  122 1    
   119   60   61 2    
   120   60   62 1    
   121   62   63 1    
   122   62   64 1    
   123   62  123 1    
   124   63  124 1    
   125   63  125 1    
   126   63  126 1    
   127   64   65 am   BACKBONE|DICT|INTERRES
   128   64  127 1    
   129   65   66 2    
@<TRIPOS>SUBSTRUCTURE
     1 UNK         1 GROUP             0       ****    0 ROOT    
