@<TRIPOS>MOLECULE
3R134
127   129    1
SMALL
USER_CHARGES


@<TRIPOS>ATOM
      1 CA         30.1415  -45.0071  -53.0364 C.3       0 UNK        -0.1968 
      2 C          31.3468  -45.1598  -52.1246 C.2       0 UNK         0.4852 
      3 O          31.2422  -45.7955  -51.0753 O.2       0 UNK        -0.5359 
      4 N          32.4920  -44.5864  -52.5190 N.am      1 UNK        -0.4300 
      5 CA         33.7614  -44.6531  -51.7795 C.3       1 UNK         0.0863 
      6 C6         34.7830  -43.6080  -52.2854 C.3       11 UNK        -0.0953 
      7 S7         34.1864  -41.9003  -52.0678 S.3       11 UNK        -0.2369 
      8 C8         34.1484  -41.3012  -53.7841 C.3       11 UNK         0.0226 
      9 C9         32.9568  -41.8385  -54.5648 C.ar      11 UNK        -0.0699 
     10 C10        33.1344  -42.7943  -55.5704 C.ar      11 UNK        -0.0804 
     11 C11        32.0531  -43.2097  -56.3554 C.ar      11 UNK        -0.0871 
     12 C12        30.7866  -42.6602  -56.1210 C.ar      11 UNK        -0.1008 
     13 C13        30.5904  -41.7268  -55.0994 C.ar      11 UNK        -0.0735 
     14 C14        31.6804  -41.3231  -54.3234 C.ar      11 UNK        -0.0945 
     15 C15        29.2175  -41.1125  -54.8622 C.3       11 UNK         0.0169 
     16 S16        28.0489  -42.2936  -54.1148 S.3       11 UNK        -0.2669 
     17 C17        27.1788  -42.9654  -55.5750 C.3       11 UNK        -0.0850 
     18 CA         27.1645  -44.5237  -55.6574 C.3       10 UNK         0.0855 
     19 C          26.0676  -45.1780  -54.7612 C.2       10 UNK         0.5543 
     20 N          25.2965  -46.1450  -55.2434 N.am      10 UNK        -0.7343 
     21 O          25.9305  -44.8308  -53.5915 O.2       10 UNK        -0.5027 
     22 N          27.1808  -45.0270  -57.0425 N.am      10 UNK        -0.4495 
     23 C          26.3495  -44.6623  -58.0280 C.2       10 UNK         0.4903 
     24 O          25.4954  -43.7816  -57.9239 O.2       10 UNK        -0.4860 
     25 CA         26.4858  -45.4021  -59.3699 C.3       9 UNK         0.0227 
     26 CB         27.5646  -44.7301  -60.2355 C.3       9 UNK        -0.1964 
     27 N          26.7711  -46.8376  -59.2711 N.am      9 UNK        -0.4231 
     28 C          26.0379  -47.7522  -58.6191 C.2       9 UNK         0.5014 
     29 O          25.0627  -47.4760  -57.9183 O.2       9 UNK        -0.5270 
     30 CA         26.4403  -49.2268  -58.7867 C.3       8 UNK         0.0284 
     31 CB         27.6551  -49.4605  -59.7104 C.3       8 UNK        -0.1977 
     32 N          26.7241  -49.7980  -57.4736 N.am      8 UNK        -0.4342 
     33 C          26.2621  -50.9682  -57.0146 C.2       8 UNK         0.5039 
     34 O          25.4875  -51.6860  -57.6504 O.2       8 UNK        -0.5547 
     35 CA         26.7542  -51.4583  -55.6358 C.3       7 UNK         0.0281 
     36 CB         27.5268  -52.7810  -55.7810 C.3       7 UNK        -0.1963 
     37 N          27.6109  -50.4978  -54.9385 N.am      7 UNK        -0.4444 
     38 C          27.1810  -49.4194  -54.2722 C.2       7 UNK         0.5104 
     39 O          25.9933  -49.1635  -54.0783 O.2       7 UNK        -0.5100 
     40 CA         28.2632  -48.4421  -53.7756 C.3       6 UNK         0.0396 
     41 CB         28.7051  -48.8032  -52.3500 C.3       6 UNK        -0.1801 
     42 N          29.4393  -48.3798  -54.6538 N.am      6 UNK        -0.4747 
     43 C          29.4165  -47.9713  -55.9318 C.2       6 UNK         0.5012 
     44 O          28.3965  -47.5920  -56.5028 O.2       6 UNK        -0.5003 
     45 CA         30.7321  -48.0364  -56.7238 C.3       5 UNK         0.0782 
     46 C46        31.5753  -46.7497  -56.5442 C.3       11 UNK        -0.0868 
     47 S47        30.9835  -45.4459  -57.6728 S.3       11 UNK        -0.2515 
     48 C48        32.2822  -44.1776  -57.5125 C.3       11 UNK         0.0199 
     49 N          31.4702  -49.2572  -56.3969 N.am      5 UNK        -0.4607 
     50 C          31.2282  -50.4470  -56.9682 C.2       4 UNK         0.5031 
     51 O          30.4193  -50.6144  -57.8799 O.2       4 UNK        -0.5119 
     52 CA         32.0016  -51.6646  -56.4318 C.3       4 UNK         0.0263 
     53 CB         33.2942  -51.8751  -57.2363 C.3       4 UNK        -0.1967 
     54 N          32.3275  -51.5663  -55.0083 N.am      4 UNK        -0.4237 
     55 C          31.4240  -51.5427  -54.0183 C.2       3 UNK         0.4908 
     56 O          30.2110  -51.6521  -54.1926 O.2       3 UNK        -0.5102 
     57 CA         31.9646  -51.2926  -52.6000 C.3       3 UNK         0.0241 
     58 CB         32.3555  -52.6200  -51.9313 C.3       3 UNK        -0.1971 
     59 N          33.1002  -50.3624  -52.5531 N.am      3 UNK        -0.4139 
     60 C          33.0829  -49.1050  -53.0167 C.2       2 UNK         0.5016 
     61 O          32.1169  -48.5922  -53.5915 O.2       2 UNK        -0.5319 
     62 CA         34.3776  -48.3022  -52.8725 C.3       2 UNK         0.0286 
     63 CB         35.2690  -48.4987  -54.1100 C.3       2 UNK        -0.1963 
     64 N          34.0151  -46.8941  -52.7660 N.am      2 UNK        -0.4790 
     65 C          34.3959  -46.0610  -51.7915 C.2       1 UNK         0.5024 
     66 O          35.2132  -46.3607  -50.9195 O.2       1 UNK        -0.4888 
     67 H67        29.3225  -44.5287  -52.5004 H         1 UNK         0.0892 
     68 H68        30.3692  -44.4091  -53.9173 H         1 UNK         0.0892 
     69 H69        29.8026  -45.9838  -53.3719 H         1 UNK         0.0892 
     70 H70        32.5082  -44.0304  -53.3633 H         1 UNK         0.3107 
     71 H71        33.5415  -44.4258  -50.7339 H         1 UNK         0.0773 
     72 H72        35.0336  -43.7899  -53.3320 H         1 UNK         0.0680 
     73 H73        35.7208  -43.6894  -51.7321 H         1 UNK         0.0680 
     74 H74        34.0972  -40.2115  -53.7675 H         1 UNK         0.0650 
     75 H75        35.0881  -41.5490  -54.2801 H         1 UNK         0.0650 
     76 H76        34.1241  -43.1828  -55.7701 H         1 UNK         0.1397 
     77 H77        29.9518  -42.9536  -56.7415 H         1 UNK         0.1363 
     78 H78        31.5447  -40.5825  -53.5467 H         1 UNK         0.1355 
     79 H79        29.3022  -40.2563  -54.1912 H         1 UNK         0.0707 
     80 H80        28.8206  -40.7139  -55.7967 H         1 UNK         0.0707 
     81 H81        26.1614  -42.5702  -55.5839 H         1 UNK         0.1034 
     82 H82        27.6478  -42.5568  -56.4699 H         1 UNK         0.1034 
     83 H83        28.1093  -44.8817  -55.2476 H         1 UNK         0.0482 
     84 H84        25.3902  -46.4679  -56.1999 H         1 UNK         0.3460 
     85 H85        24.6224  -46.5824  -54.6365 H         1 UNK         0.3460 
     86 H86        27.7843  -45.8297  -57.1917 H         1 UNK         0.2989 
     87 H87        25.5296  -45.3060  -59.8884 H         1 UNK         0.0559 
     88 H88        28.5574  -44.8317  -59.7943 H         1 UNK         0.0848 
     89 H89        27.3672  -43.6629  -60.3474 H         1 UNK         0.0848 
     90 H90        27.5959  -45.1568  -61.2381 H         1 UNK         0.0848 
     91 H91        27.5649  -47.1704  -59.7983 H         1 UNK         0.3144 
     92 H92        25.5762  -49.7226  -59.2333 H         1 UNK         0.0727 
     93 H93        28.5586  -48.9845  -59.3270 H         1 UNK         0.0790 
     94 H94        27.4713  -49.0850  -60.7179 H         1 UNK         0.0790 
     95 H95        27.8692  -50.5254  -59.8057 H         1 UNK         0.0790 
     96 H96        27.3000  -49.2197  -56.8701 H         1 UNK         0.3215 
     97 H97        25.8688  -51.6445  -55.0243 H         1 UNK         0.0863 
     98 H98        27.8338  -53.1697  -54.8098 H         1 UNK         0.0808 
     99 H99        28.4237  -52.6561  -56.3896 H         1 UNK         0.0808 
    100 H100       26.9127  -53.5474  -56.2558 H         1 UNK         0.0808 
    101 H101       28.6099  -50.6804  -54.9595 H         1 UNK         0.3118 
    102 H102       27.8198  -47.4451  -53.7512 H         1 UNK         0.0546 
    103 H103       29.4827  -48.1307  -51.9865 H         1 UNK         0.0828 
    104 H104       29.0878  -49.8218  -52.2963 H         1 UNK         0.0828 
    105 H105       27.8662  -48.7357  -51.6564 H         1 UNK         0.0828 
    106 H106       30.3349  -48.6374  -54.2450 H         1 UNK         0.3005 
    107 H107       30.4554  -48.1042  -57.7791 H         1 UNK         0.1257 
    108 H108       31.5690  -46.3884  -55.5138 H         1 UNK         0.0775 
    109 H109       32.6189  -46.9511  -56.7910 H         1 UNK         0.0775 
    110 H110       33.2554  -44.6644  -57.4322 H         1 UNK         0.0840 
    111 H111       32.3080  -43.5977  -58.4359 H         1 UNK         0.0840 
    112 H112       32.0887  -49.2059  -55.5974 H         1 UNK         0.2987 
    113 H113       31.3651  -52.5417  -56.5680 H         1 UNK         0.0785 
    114 H114       33.9834  -51.0374  -57.1220 H         1 UNK         0.0798 
    115 H115       33.0781  -51.9762  -58.3009 H         1 UNK         0.0798 
    116 H116       33.8122  -52.7827  -56.9259 H         1 UNK         0.0798 
    117 H117       33.3032  -51.4726  -54.7678 H         1 UNK         0.3079 
    118 H118       31.1583  -50.8458  -52.0166 H         1 UNK         0.0794 
    119 H119       33.1885  -53.1029  -52.4438 H         1 UNK         0.0786 
    120 H120       31.5189  -53.3205  -51.9372 H         1 UNK         0.0786 
    121 H121       32.6418  -52.4712  -50.8899 H         1 UNK         0.0786 
    122 H122       33.9415  -50.7052  -52.1112 H         1 UNK         0.3032 
    123 H123       34.9072  -48.6381  -51.9779 H         1 UNK         0.1094 
    124 H124       36.1840  -47.9110  -54.0327 H         1 UNK         0.0794 
    125 H125       35.5646  -49.5427  -54.2211 H         1 UNK         0.0794 
    126 H126       34.7598  -48.2020  -55.0283 H         1 UNK         0.0794 
    127 H127       33.2662  -46.6040  -53.3798 H         1 UNK         0.3016 
@<TRIPOS>BOND
     1    1    2 1    
     2    1   67 1    
     3    1   68 1    
     4    1   69 1    
     5    2    3 2    
     6    2    4 am   BACKBONE|DICT|INTERRES
     7    4    5 1    
     8    4   70 1    
     9    5    6 1    
    10    5   65 1    
    11    5   71 1    
    12    6    7 1    
    13    6   72 1    
    14    6   73 1    
    15    7    8 1    
    16    8    9 1    
    17    8   74 1    
    18    8   75 1    
    19    9   10 ar   
    20    9   14 ar   
    21   10   11 ar   
    22   10   76 1    
    23   11   12 ar   
    24   11   48 1    
    25   12   13 ar   
    26   12   77 1    
    27   13   14 ar   
    28   13   15 1    
    29   14   78 1    
    30   15   16 1    
    31   15   79 1    
    32   15   80 1    
    33   16   17 1    
    34   17   18 1    
    35   17   81 1    
    36   17   82 1    
    37   18   19 1    
    38   18   22 1    
    39   18   83 1    
    40   19   20 am   BACKBONE|DICT|INTERRES
    41   19   21 2    
    42   20   84 1    
    43   20   85 1    
    44   22   23 am   BACKBONE|DICT|INTERRES
    45   22   86 1    
    46   23   24 2    
    47   23   25 1    
    48   25   26 1    
    49   25   27 1    
    50   25   87 1    
    51   26   88 1    
    52   26   89 1    
    53   26   90 1    
    54   27   28 am   BACKBONE|DICT|INTERRES
    55   27   91 1    
    56   28   29 2    
    57   28   30 1    
    58   30   31 1    
    59   30   32 1    
    60   30   92 1    
    61   31   93 1    
    62   31   94 1    
    63   31   95 1    
    64   32   33 am   BACKBONE|DICT|INTERRES
    65   32   96 1    
    66   33   34 2    
    67   33   35 1    
    68   35   36 1    
    69   35   37 1    
    70   35   97 1    
    71   36   98 1    
    72   36   99 1    
    73   36  100 1    
    74   37   38 am   BACKBONE|DICT|INTERRES
    75   37  101 1    
    76   38   39 2    
    77   38   40 1    
    78   40   41 1    
    79   40   42 1    
    80   40  102 1    
    81   41  103 1    
    82   41  104 1    
    83   41  105 1    
    84   42   43 am   BACKBONE|DICT|INTERRES
    85   42  106 1    
    86   43   44 2    
    87   43   45 1    
    88   45   46 1    
    89   45   49 1    
    90   45  107 1    
    91   46   47 1    
    92   46  108 1    
    93   46  109 1    
    94   47   48 1    
    95   48  110 1    
    96   48  111 1    
    97   49   50 am   BACKBONE|DICT|INTERRES
    98   49  112 1    
    99   50   51 2    
   100   50   52 1    
   101   52   53 1    
   102   52   54 1    
   103   52  113 1    
   104   53  114 1    
   105   53  115 1    
   106   53  116 1    
   107   54   55 am   BACKBONE|DICT|INTERRES
   108   54  117 1    
   109   55   56 2    
   110   55   57 1    
   111   57   58 1    
   112   57   59 1    
   113   57  118 1    
   114   58  119 1    
   115   58  120 1    
   116   58  121 1    
   117   59   60 am   BACKBONE|DICT|INTERRES
   118   59  122 1    
   119   60   61 2    
   120   60   62 1    
   121   62   63 1    
   122   62   64 1    
   123   62  123 1    
   124   63  124 1    
   125   63  125 1    
   126   63  126 1    
   127   64   65 am   BACKBONE|DICT|INTERRES
   128   64  127 1    
   129   65   66 2    
@<TRIPOS>SUBSTRUCTURE
     1 UNK         1 GROUP             0       ****    0 ROOT    
