@<TRIPOS>MOLECULE
3R134
127   129    1
SMALL
USER_CHARGES


@<TRIPOS>ATOM
      1 CA         36.2892  -45.7173  -54.1184 C.3       0 UNK        -0.1968 
      2 C          35.1907  -44.9698  -53.3767 C.2       0 UNK         0.4852 
      3 O          35.3906  -44.5837  -52.2244 O.2       0 UNK        -0.5359 
      4 N          34.0394  -44.7731  -54.0351 N.am      1 UNK        -0.4300 
      5 CA         32.8407  -44.0853  -53.5297 C.3       1 UNK         0.0863 
      6 C6         33.0225  -42.5503  -53.3382 C.3       11 UNK        -0.0953 
      7 S7         33.8063  -41.7123  -54.7643 S.3       11 UNK        -0.2369 
      8 C8         32.3835  -41.2869  -55.8241 C.3       11 UNK         0.0226 
      9 C9         31.6305  -42.5229  -56.2958 C.ar      11 UNK        -0.0699 
     10 C10        32.2853  -43.5089  -57.0425 C.ar      11 UNK        -0.0804 
     11 C11        31.6266  -44.6924  -57.3890 C.ar      11 UNK        -0.0871 
     12 C12        30.2892  -44.8639  -57.0229 C.ar      11 UNK        -0.1008 
     13 C13        29.6131  -43.8713  -56.3073 C.ar      11 UNK        -0.0735 
     14 C14        30.2887  -42.7025  -55.9467 C.ar      11 UNK        -0.0945 
     15 C15        28.1556  -44.0645  -55.9132 C.3       11 UNK         0.0169 
     16 S16        27.9718  -44.4268  -54.1390 S.3       11 UNK        -0.2669 
     17 C17        28.6980  -46.0973  -54.0525 C.3       11 UNK        -0.0850 
     18 CA         27.7073  -47.2618  -53.7727 C.3       10 UNK         0.0855 
     19 C          27.3660  -47.4954  -52.2682 C.2       10 UNK         0.5543 
     20 N          26.4403  -48.3942  -51.9558 N.am      10 UNK        -0.7343 
     21 O          27.9654  -46.9015  -51.3752 O.2       10 UNK        -0.5027 
     22 N          26.5942  -47.3407  -54.7417 N.am      10 UNK        -0.4495 
     23 C          25.3502  -46.8522  -54.6170 C.2       10 UNK         0.4903 
     24 O          24.9511  -46.1860  -53.6603 O.2       10 UNK        -0.4860 
     25 CA         24.3761  -47.2120  -55.7565 C.3       9 UNK         0.0227 
     26 CB         22.9182  -46.8007  -55.4562 C.3       9 UNK        -0.1964 
     27 N          24.7973  -46.6987  -57.0634 N.am      9 UNK        -0.4231 
     28 C          24.9848  -45.4244  -57.4323 C.2       9 UNK         0.5014 
     29 O          24.8419  -44.4611  -56.6780 O.2       9 UNK        -0.5270 
     30 CA         25.3837  -45.1889  -58.9072 C.3       8 UNK         0.0284 
     31 CB         25.6979  -43.7101  -59.2061 C.3       8 UNK        -0.1977 
     32 N          26.5223  -46.0035  -59.3441 N.am      8 UNK        -0.4342 
     33 C          26.5116  -47.3200  -59.5911 C.2       8 UNK         0.5039 
     34 O          25.5097  -48.0268  -59.4608 O.2       8 UNK        -0.5547 
     35 CA         27.8357  -47.9755  -60.0302 C.3       7 UNK         0.0281 
     36 CB         28.9796  -46.9736  -60.3086 C.3       7 UNK        -0.1963 
     37 N          28.2861  -49.0035  -59.0841 N.am      7 UNK        -0.4444 
     38 C          28.4775  -48.8655  -57.7633 C.2       7 UNK         0.5104 
     39 O          28.2299  -47.8380  -57.1314 O.2       7 UNK        -0.5100 
     40 CA         29.0570  -50.0683  -56.9949 C.3       6 UNK         0.0396 
     41 CB         29.1122  -51.3860  -57.8001 C.3       6 UNK        -0.1801 
     42 N          30.3725  -49.7435  -56.4354 N.am      6 UNK        -0.4747 
     43 C          31.4756  -49.3714  -57.1077 C.2       6 UNK         0.5012 
     44 O          31.5478  -49.3053  -58.3352 O.2       6 UNK        -0.5003 
     45 CA         32.7157  -49.0291  -56.2585 C.3       5 UNK         0.0782 
     46 C46        32.7752  -47.5123  -55.9328 C.3       11 UNK        -0.0868 
     47 S47        33.6930  -46.5485  -57.1786 S.3       11 UNK        -0.2515 
     48 C48        32.3592  -45.7829  -58.1588 C.3       11 UNK         0.0199 
     49 N          32.7544  -49.8377  -55.0359 N.am      5 UNK        -0.4607 
     50 C          33.1523  -51.1162  -54.9738 C.2       4 UNK         0.5031 
     51 O          33.6042  -51.7338  -55.9382 O.2       4 UNK        -0.5119 
     52 CA         33.0414  -51.8343  -53.6134 C.3       4 UNK         0.0263 
     53 CB         34.4110  -51.8663  -52.9155 C.3       4 UNK        -0.1967 
     54 N          32.0586  -51.2345  -52.7061 N.am      4 UNK        -0.4237 
     55 C          30.7293  -51.2794  -52.8759 C.2       3 UNK         0.4908 
     56 O          30.1758  -51.9025  -53.7814 O.2       3 UNK        -0.5102 
     57 CA         29.8692  -50.4507  -51.9009 C.3       3 UNK         0.0241 
     58 CB         29.3895  -51.3235  -50.7306 C.3       3 UNK        -0.1971 
     59 N          30.5166  -49.2399  -51.3722 N.am      3 UNK        -0.4139 
     60 C          31.0388  -48.2567  -52.1182 C.2       2 UNK         0.5016 
     61 O          31.0825  -48.2944  -53.3515 O.2       2 UNK        -0.5319 
     62 CA         31.6259  -47.0446  -51.3805 C.3       2 UNK         0.0286 
     63 CB         32.7562  -47.4501  -50.4156 C.3       2 UNK        -0.1963 
     64 N          32.1565  -46.1259  -52.3827 N.am      2 UNK        -0.4790 
     65 C          32.2434  -44.7946  -52.2926 C.2       1 UNK         0.5024 
     66 O          31.8894  -44.1516  -51.3027 O.2       1 UNK        -0.4888 
     67 H67        36.5262  -46.6461  -53.6002 H         1 UNK         0.0892 
     68 H68        37.1928  -45.1098  -54.1608 H         1 UNK         0.0892 
     69 H69        36.0003  -45.9634  -55.1400 H         1 UNK         0.0892 
     70 H70        33.9668  -45.0979  -54.9898 H         1 UNK         0.3107 
     71 H71        32.0846  -44.2297  -54.2992 H         1 UNK         0.0773 
     72 H72        32.0604  -42.0756  -53.1376 H         1 UNK         0.0680 
     73 H73        33.6459  -42.3534  -52.4644 H         1 UNK         0.0680 
     74 H74        31.7252  -40.6088  -55.2787 H         1 UNK         0.0650 
     75 H75        32.7432  -40.7365  -56.6943 H         1 UNK         0.0650 
     76 H76        33.3233  -43.3736  -57.3148 H         1 UNK         0.1397 
     77 H77        29.7745  -45.7773  -57.2829 H         1 UNK         0.1363 
     78 H78        29.7725  -41.9463  -55.3710 H         1 UNK         0.1355 
     79 H79        27.7062  -44.8741  -56.4896 H         1 UNK         0.0707 
     80 H80        27.5889  -43.1638  -56.1531 H         1 UNK         0.0707 
     81 H81        29.2199  -46.3164  -54.9825 H         1 UNK         0.1034 
     82 H82        29.4853  -46.0687  -53.3012 H         1 UNK         0.1034 
     83 H83        28.2857  -48.1575  -54.0036 H         1 UNK         0.0482 
     84 H84        25.9361  -48.8841  -52.6767 H         1 UNK         0.3460 
     85 H85        26.2188  -48.5550  -50.9863 H         1 UNK         0.3460 
     86 H86        26.8429  -47.7835  -55.6187 H         1 UNK         0.2989 
     87 H87        24.3922  -48.2997  -55.8408 H         1 UNK         0.0559 
     88 H88        22.8143  -45.7206  -55.3475 H         1 UNK         0.0848 
     89 H89        22.5688  -47.2542  -54.5278 H         1 UNK         0.0848 
     90 H90        22.2429  -47.1242  -56.2481 H         1 UNK         0.0848 
     91 H91        24.9672  -47.3964  -57.7863 H         1 UNK         0.3144 
     92 H92        24.5182  -45.4692  -59.5113 H         1 UNK         0.0727 
     93 H93        24.8497  -43.0706  -58.9575 H         1 UNK         0.0790 
     94 H94        25.9150  -43.5550  -60.2631 H         1 UNK         0.0790 
     95 H95        26.5539  -43.3549  -58.6309 H         1 UNK         0.0790 
     96 H96        27.4042  -45.5210  -59.4335 H         1 UNK         0.3215 
     97 H97        27.6174  -48.4915  -60.9665 H         1 UNK         0.0863 
     98 H98        29.8698  -47.4911  -60.6669 H         1 UNK         0.0808 
     99 H99        29.2672  -46.4167  -59.4183 H         1 UNK         0.0808 
    100 H100       28.7000  -46.2548  -61.0801 H         1 UNK         0.0808 
    101 H101       28.5012  -49.9022  -59.4913 H         1 UNK         0.3118 
    102 H102       28.3953  -50.2328  -56.1433 H         1 UNK         0.0546 
    103 H103       28.1229  -51.6694  -58.1621 H         1 UNK         0.0828 
    104 H104       29.4660  -52.2051  -57.1736 H         1 UNK         0.0828 
    105 H105       29.7790  -51.3239  -58.6606 H         1 UNK         0.0828 
    106 H106       30.4264  -49.7438  -55.4256 H         1 UNK         0.3005 
    107 H107       33.5940  -49.2946  -56.8522 H         1 UNK         0.1257 
    108 H108       33.3140  -47.3667  -54.9964 H         1 UNK         0.0775 
    109 H109       31.7839  -47.0859  -55.7652 H         1 UNK         0.0775 
    110 H110       32.7926  -45.3481  -59.0605 H         1 UNK         0.0840 
    111 H111       31.6691  -46.5567  -58.4979 H         1 UNK         0.0840 
    112 H112       32.3339  -49.4081  -54.2173 H         1 UNK         0.2987 
    113 H113       32.7340  -52.8632  -53.8130 H         1 UNK         0.0785 
    114 H114       35.1622  -52.3371  -53.5515 H         1 UNK         0.0798 
    115 H115       34.3714  -52.4381  -51.9881 H         1 UNK         0.0798 
    116 H116       34.7679  -50.8631  -52.6786 H         1 UNK         0.0798 
    117 H117       32.4218  -50.7041  -51.9279 H         1 UNK         0.3079 
    118 H118       28.9898  -50.1251  -52.4595 H         1 UNK         0.0794 
    119 H119       30.2192  -51.6475  -50.1011 H         1 UNK         0.0786 
    120 H120       28.8849  -52.2205  -51.0928 H         1 UNK         0.0786 
    121 H121       28.6780  -50.7875  -50.1020 H         1 UNK         0.0786 
    122 H122       30.5136  -49.1340  -50.3677 H         1 UNK         0.3032 
    123 H123       30.8159  -46.5599  -50.8299 H         1 UNK         0.1094 
    124 H124       33.5552  -47.9834  -50.9326 H         1 UNK         0.0794 
    125 H125       33.1989  -46.5753  -49.9385 H         1 UNK         0.0794 
    126 H126       32.3905  -48.0960  -49.6169 H         1 UNK         0.0794 
    127 H127       32.3887  -46.5750  -53.2580 H         1 UNK         0.3016 
@<TRIPOS>BOND
     1    1    2 1    
     2    1   67 1    
     3    1   68 1    
     4    1   69 1    
     5    2    3 2    
     6    2    4 am   BACKBONE|DICT|INTERRES
     7    4    5 1    
     8    4   70 1    
     9    5    6 1    
    10    5   65 1    
    11    5   71 1    
    12    6    7 1    
    13    6   72 1    
    14    6   73 1    
    15    7    8 1    
    16    8    9 1    
    17    8   74 1    
    18    8   75 1    
    19    9   10 ar   
    20    9   14 ar   
    21   10   11 ar   
    22   10   76 1    
    23   11   12 ar   
    24   11   48 1    
    25   12   13 ar   
    26   12   77 1    
    27   13   14 ar   
    28   13   15 1    
    29   14   78 1    
    30   15   16 1    
    31   15   79 1    
    32   15   80 1    
    33   16   17 1    
    34   17   18 1    
    35   17   81 1    
    36   17   82 1    
    37   18   19 1    
    38   18   22 1    
    39   18   83 1    
    40   19   20 am   BACKBONE|DICT|INTERRES
    41   19   21 2    
    42   20   84 1    
    43   20   85 1    
    44   22   23 am   BACKBONE|DICT|INTERRES
    45   22   86 1    
    46   23   24 2    
    47   23   25 1    
    48   25   26 1    
    49   25   27 1    
    50   25   87 1    
    51   26   88 1    
    52   26   89 1    
    53   26   90 1    
    54   27   28 am   BACKBONE|DICT|INTERRES
    55   27   91 1    
    56   28   29 2    
    57   28   30 1    
    58   30   31 1    
    59   30   32 1    
    60   30   92 1    
    61   31   93 1    
    62   31   94 1    
    63   31   95 1    
    64   32   33 am   BACKBONE|DICT|INTERRES
    65   32   96 1    
    66   33   34 2    
    67   33   35 1    
    68   35   36 1    
    69   35   37 1    
    70   35   97 1    
    71   36   98 1    
    72   36   99 1    
    73   36  100 1    
    74   37   38 am   BACKBONE|DICT|INTERRES
    75   37  101 1    
    76   38   39 2    
    77   38   40 1    
    78   40   41 1    
    79   40   42 1    
    80   40  102 1    
    81   41  103 1    
    82   41  104 1    
    83   41  105 1    
    84   42   43 am   BACKBONE|DICT|INTERRES
    85   42  106 1    
    86   43   44 2    
    87   43   45 1    
    88   45   46 1    
    89   45   49 1    
    90   45  107 1    
    91   46   47 1    
    92   46  108 1    
    93   46  109 1    
    94   47   48 1    
    95   48  110 1    
    96   48  111 1    
    97   49   50 am   BACKBONE|DICT|INTERRES
    98   49  112 1    
    99   50   51 2    
   100   50   52 1    
   101   52   53 1    
   102   52   54 1    
   103   52  113 1    
   104   53  114 1    
   105   53  115 1    
   106   53  116 1    
   107   54   55 am   BACKBONE|DICT|INTERRES
   108   54  117 1    
   109   55   56 2    
   110   55   57 1    
   111   57   58 1    
   112   57   59 1    
   113   57  118 1    
   114   58  119 1    
   115   58  120 1    
   116   58  121 1    
   117   59   60 am   BACKBONE|DICT|INTERRES
   118   59  122 1    
   119   60   61 2    
   120   60   62 1    
   121   62   63 1    
   122   62   64 1    
   123   62  123 1    
   124   63  124 1    
   125   63  125 1    
   126   63  126 1    
   127   64   65 am   BACKBONE|DICT|INTERRES
   128   64  127 1    
   129   65   66 2    
@<TRIPOS>SUBSTRUCTURE
     1 UNK         1 GROUP             0       ****    0 ROOT    
