@<TRIPOS>MOLECULE
3R134
127   129    1
SMALL
USER_CHARGES


@<TRIPOS>ATOM
      1 CA         34.2824  -45.5367  -49.3148 C.3       0 UNK        -0.1968 
      2 C          35.3209  -45.7657  -50.4036 C.2       0 UNK         0.4852 
      3 O          36.4215  -46.2371  -50.1121 O.2       0 UNK        -0.5359 
      4 N          34.9798  -45.4295  -51.6531 N.am      1 UNK        -0.4300 
      5 CA         35.7970  -45.6671  -52.8453 C.3       1 UNK         0.0863 
      6 C6         35.3901  -44.7298  -54.0146 C.3       11 UNK        -0.0953 
      7 S7         33.6110  -44.7866  -54.4319 S.3       11 UNK        -0.2369 
      8 C8         33.0441  -43.1939  -53.7597 C.3       11 UNK         0.0226 
      9 C9         31.5401  -43.1950  -53.5384 C.ar      11 UNK        -0.0699 
     10 C10        31.0153  -43.6396  -52.3222 C.ar      11 UNK        -0.0804 
     11 C11        29.6353  -43.6481  -52.1038 C.ar      11 UNK        -0.0871 
     12 C12        28.7764  -43.1851  -53.1061 C.ar      11 UNK        -0.1008 
     13 C13        29.2885  -42.7580  -54.3357 C.ar      11 UNK        -0.0735 
     14 C14        30.6723  -42.7578  -54.5433 C.ar      11 UNK        -0.0945 
     15 C15        28.3444  -42.3081  -55.4429 C.3       11 UNK         0.0169 
     16 S16        27.4579  -43.7127  -56.1940 S.3       11 UNK        -0.2669 
     17 C17        28.8265  -44.6691  -56.9363 C.3       11 UNK        -0.0850 
     18 CA         28.5050  -45.1936  -58.3579 C.3       10 UNK         0.0855 
     19 C          29.7701  -45.8006  -59.0377 C.2       10 UNK         0.5543 
     20 N          29.7646  -47.0489  -59.4919 N.am      10 UNK        -0.7343 
     21 O          30.7767  -45.1107  -59.1773 O.2       10 UNK        -0.5027 
     22 N          27.3359  -46.0881  -58.3565 N.am      10 UNK        -0.4495 
     23 C          26.5389  -46.2852  -59.4146 C.2       10 UNK         0.4903 
     24 O          26.6479  -45.6642  -60.4735 O.2       10 UNK        -0.4860 
     25 CA         25.4395  -47.3577  -59.2679 C.3       9 UNK         0.0227 
     26 CB         24.9061  -47.8537  -60.6288 C.3       9 UNK        -0.1964 
     27 N          25.8271  -48.4974  -58.4257 N.am      9 UNK        -0.4231 
     28 C          26.8771  -49.3193  -58.5948 C.2       9 UNK         0.5014 
     29 O          27.6872  -49.1999  -59.5153 O.2       9 UNK        -0.5270 
     30 CA         27.0780  -50.4452  -57.5607 C.3       8 UNK         0.0284 
     31 CB         28.5610  -50.5999  -57.1844 C.3       8 UNK        -0.1977 
     32 N          26.3149  -50.1921  -56.3382 N.am      8 UNK        -0.4342 
     33 C          25.2132  -50.8502  -55.9518 C.2       8 UNK         0.5039 
     34 O          24.7548  -51.8280  -56.5433 O.2       8 UNK        -0.5547 
     35 CA         24.4718  -50.3095  -54.7110 C.3       7 UNK         0.0281 
     36 CB         24.8913  -51.0900  -53.4548 C.3       7 UNK        -0.1963 
     37 N          24.6804  -48.8757  -54.4787 N.am      7 UNK        -0.4444 
     38 C          24.3429  -47.8993  -55.3333 C.2       7 UNK         0.5104 
     39 O          23.7154  -48.0942  -56.3737 O.2       7 UNK        -0.5100 
     40 CA         24.8579  -46.4811  -55.0283 C.3       6 UNK         0.0396 
     41 CB         23.7403  -45.6239  -54.4155 C.3       6 UNK        -0.1801 
     42 N          26.0416  -46.4242  -54.1605 N.am      6 UNK        -0.4747 
     43 C          27.2356  -46.9895  -54.4027 C.2       6 UNK         0.5012 
     44 O          27.4480  -47.6979  -55.3907 O.2       6 UNK        -0.5003 
     45 CA         28.3600  -46.7097  -53.3780 C.3       5 UNK         0.0782 
     46 C46        27.8275  -46.4554  -51.9378 C.3       11 UNK        -0.0868 
     47 S47        29.1415  -46.0106  -50.7512 S.3       11 UNK        -0.2515 
     48 C48        29.0823  -44.1881  -50.7936 C.3       11 UNK         0.0199 
     49 N          29.3866  -47.7576  -53.4048 N.am      5 UNK        -0.4607 
     50 C          30.4841  -47.7261  -54.1705 C.2       4 UNK         0.5031 
     51 O          30.7222  -46.8290  -54.9795 O.2       4 UNK        -0.5119 
     52 CA         31.5157  -48.8480  -53.9326 C.3       4 UNK         0.0263 
     53 CB         30.8885  -50.2598  -53.9237 C.3       4 UNK        -0.1967 
     54 N          32.6541  -48.7636  -54.8570 N.am      4 UNK        -0.4237 
     55 C          32.6584  -48.9809  -56.1837 C.2       3 UNK         0.4908 
     56 O          31.7077  -49.4446  -56.8127 O.2       3 UNK        -0.5102 
     57 CA         33.9357  -48.6118  -56.9653 C.3       3 UNK         0.0241 
     58 CB         33.7019  -47.3327  -57.7878 C.3       3 UNK        -0.1971 
     59 N          35.1129  -48.4167  -56.1171 N.am      3 UNK        -0.4139 
     60 C          35.7915  -49.3947  -55.5017 C.2       2 UNK         0.5016 
     61 O          35.5583  -50.5936  -55.6583 O.2       2 UNK        -0.5319 
     62 CA         36.9060  -48.9643  -54.5272 C.3       2 UNK         0.0286 
     63 CB         38.2856  -49.1164  -55.1886 C.3       2 UNK        -0.1963 
     64 N          36.7687  -47.5940  -54.0113 N.am      2 UNK        -0.4790 
     65 C          35.7493  -47.1530  -53.2594 C.2       1 UNK         0.5024 
     66 O          34.7855  -47.8566  -52.9444 O.2       1 UNK        -0.4888 
     67 H67        34.0505  -46.4768  -48.8150 H         1 UNK         0.0892 
     68 H68        34.6665  -44.8400  -48.5701 H         1 UNK         0.0892 
     69 H69        33.3540  -45.1287  -49.7142 H         1 UNK         0.0892 
     70 H70        34.0452  -45.1008  -51.8439 H         1 UNK         0.3107 
     71 H71        36.8339  -45.4395  -52.5875 H         1 UNK         0.0773 
     72 H72        35.9598  -44.9629  -54.9159 H         1 UNK         0.0680 
     73 H73        35.6649  -43.7037  -53.7654 H         1 UNK         0.0680 
     74 H74        33.3292  -42.3931  -54.4436 H         1 UNK         0.0650 
     75 H75        33.5505  -42.9872  -52.8156 H         1 UNK         0.0650 
     76 H76        31.6794  -43.9976  -51.5480 H         1 UNK         0.1397 
     77 H77        27.7065  -43.1906  -52.9476 H         1 UNK         0.1363 
     78 H78        31.0765  -42.4274  -55.4903 H         1 UNK         0.1355 
     79 H79        27.6142  -41.6096  -55.0320 H         1 UNK         0.0707 
     80 H80        28.8839  -41.7640  -56.2198 H         1 UNK         0.0707 
     81 H81        29.7209  -44.0446  -56.9597 H         1 UNK         0.1034 
     82 H82        29.0616  -45.5015  -56.2766 H         1 UNK         0.1034 
     83 H83        28.2509  -44.3196  -58.9608 H         1 UNK         0.0482 
     84 H84        28.9440  -47.6394  -59.4115 H         1 UNK         0.3460 
     85 H85        30.5943  -47.4117  -59.9313 H         1 UNK         0.3460 
     86 H86        27.2078  -46.6507  -57.5261 H         1 UNK         0.2989 
     87 H87        24.6132  -46.8680  -58.7510 H         1 UNK         0.0559 
     88 H88        25.6938  -48.3115  -61.2281 H         1 UNK         0.0848 
     89 H89        24.4902  -47.0311  -61.2119 H         1 UNK         0.0848 
     90 H90        24.1121  -48.5891  -60.4998 H         1 UNK         0.0848 
     91 H91        25.2067  -48.6712  -57.6420 H         1 UNK         0.3144 
     92 H92        26.7477  -51.3724  -58.0327 H         1 UNK         0.0727 
     93 H93        28.9614  -49.6797  -56.7560 H         1 UNK         0.0790 
     94 H94        29.1702  -50.8432  -58.0558 H         1 UNK         0.0790 
     95 H95        28.7043  -51.4005  -56.4590 H         1 UNK         0.0790 
     96 H96        26.6203  -49.3813  -55.8039 H         1 UNK         0.3215 
     97 H97        23.4035  -50.4668  -54.8754 H         1 UNK         0.0863 
     98 H98        24.3166  -50.7790  -52.5822 H         1 UNK         0.0808 
     99 H99        25.9497  -50.9539  -53.2285 H         1 UNK         0.0808 
    100 H100       24.7220  -52.1598  -53.5865 H         1 UNK         0.0808 
    101 H101       25.1902  -48.6174  -53.6468 H         1 UNK         0.3118 
    102 H102       25.1405  -46.0339  -55.9836 H         1 UNK         0.0546 
    103 H103       23.4370  -45.9942  -53.4355 H         1 UNK         0.0828 
    104 H104       22.8542  -45.6237  -55.0522 H         1 UNK         0.0828 
    105 H105       24.0531  -44.5856  -54.3028 H         1 UNK         0.0828 
    106 H106       25.9439  -45.8565  -53.3315 H         1 UNK         0.3005 
    107 H107       28.8199  -45.7835  -53.7239 H         1 UNK         0.1257 
    108 H108       27.3218  -47.3453  -51.5585 H         1 UNK         0.0775 
    109 H109       27.0879  -45.6542  -51.9167 H         1 UNK         0.0775 
    110 H110       28.0606  -43.8438  -50.6258 H         1 UNK         0.0840 
    111 H111       29.6730  -43.7972  -49.9637 H         1 UNK         0.0840 
    112 H112       29.2556  -48.5259  -52.7649 H         1 UNK         0.2987 
    113 H113       31.9372  -48.6662  -52.9427 H         1 UNK         0.0785 
    114 H114       30.2101  -50.3896  -53.0804 H         1 UNK         0.0798 
    115 H115       31.6539  -51.0311  -53.8377 H         1 UNK         0.0798 
    116 H116       30.3184  -50.4565  -54.8305 H         1 UNK         0.0798 
    117 H117       33.4926  -48.3732  -54.4408 H         1 UNK         0.3079 
    118 H118       34.1436  -49.4316  -57.6563 H         1 UNK         0.0794 
    119 H119       32.8546  -47.4532  -58.4645 H         1 UNK         0.0786 
    120 H120       34.5703  -47.0847  -58.3983 H         1 UNK         0.0786 
    121 H121       33.4813  -46.4772  -57.1477 H         1 UNK         0.0786 
    122 H122       35.3850  -47.4627  -55.9315 H         1 UNK         0.3032 
    123 H123       36.8581  -49.6443  -53.6734 H         1 UNK         0.1094 
    124 H124       39.0905  -48.9133  -54.4818 H         1 UNK         0.0794 
    125 H125       38.4320  -50.1327  -55.5578 H         1 UNK         0.0794 
    126 H126       38.4035  -48.4418  -56.0376 H         1 UNK         0.0794 
    127 H127       37.5189  -46.9546  -54.2353 H         1 UNK         0.3016 
@<TRIPOS>BOND
     1    1    2 1    
     2    1   67 1    
     3    1   68 1    
     4    1   69 1    
     5    2    3 2    
     6    2    4 am   BACKBONE|DICT|INTERRES
     7    4    5 1    
     8    4   70 1    
     9    5    6 1    
    10    5   65 1    
    11    5   71 1    
    12    6    7 1    
    13    6   72 1    
    14    6   73 1    
    15    7    8 1    
    16    8    9 1    
    17    8   74 1    
    18    8   75 1    
    19    9   10 ar   
    20    9   14 ar   
    21   10   11 ar   
    22   10   76 1    
    23   11   12 ar   
    24   11   48 1    
    25   12   13 ar   
    26   12   77 1    
    27   13   14 ar   
    28   13   15 1    
    29   14   78 1    
    30   15   16 1    
    31   15   79 1    
    32   15   80 1    
    33   16   17 1    
    34   17   18 1    
    35   17   81 1    
    36   17   82 1    
    37   18   19 1    
    38   18   22 1    
    39   18   83 1    
    40   19   20 am   BACKBONE|DICT|INTERRES
    41   19   21 2    
    42   20   84 1    
    43   20   85 1    
    44   22   23 am   BACKBONE|DICT|INTERRES
    45   22   86 1    
    46   23   24 2    
    47   23   25 1    
    48   25   26 1    
    49   25   27 1    
    50   25   87 1    
    51   26   88 1    
    52   26   89 1    
    53   26   90 1    
    54   27   28 am   BACKBONE|DICT|INTERRES
    55   27   91 1    
    56   28   29 2    
    57   28   30 1    
    58   30   31 1    
    59   30   32 1    
    60   30   92 1    
    61   31   93 1    
    62   31   94 1    
    63   31   95 1    
    64   32   33 am   BACKBONE|DICT|INTERRES
    65   32   96 1    
    66   33   34 2    
    67   33   35 1    
    68   35   36 1    
    69   35   37 1    
    70   35   97 1    
    71   36   98 1    
    72   36   99 1    
    73   36  100 1    
    74   37   38 am   BACKBONE|DICT|INTERRES
    75   37  101 1    
    76   38   39 2    
    77   38   40 1    
    78   40   41 1    
    79   40   42 1    
    80   40  102 1    
    81   41  103 1    
    82   41  104 1    
    83   41  105 1    
    84   42   43 am   BACKBONE|DICT|INTERRES
    85   42  106 1    
    86   43   44 2    
    87   43   45 1    
    88   45   46 1    
    89   45   49 1    
    90   45  107 1    
    91   46   47 1    
    92   46  108 1    
    93   46  109 1    
    94   47   48 1    
    95   48  110 1    
    96   48  111 1    
    97   49   50 am   BACKBONE|DICT|INTERRES
    98   49  112 1    
    99   50   51 2    
   100   50   52 1    
   101   52   53 1    
   102   52   54 1    
   103   52  113 1    
   104   53  114 1    
   105   53  115 1    
   106   53  116 1    
   107   54   55 am   BACKBONE|DICT|INTERRES
   108   54  117 1    
   109   55   56 2    
   110   55   57 1    
   111   57   58 1    
   112   57   59 1    
   113   57  118 1    
   114   58  119 1    
   115   58  120 1    
   116   58  121 1    
   117   59   60 am   BACKBONE|DICT|INTERRES
   118   59  122 1    
   119   60   61 2    
   120   60   62 1    
   121   62   63 1    
   122   62   64 1    
   123   62  123 1    
   124   63  124 1    
   125   63  125 1    
   126   63  126 1    
   127   64   65 am   BACKBONE|DICT|INTERRES
   128   64  127 1    
   129   65   66 2    
@<TRIPOS>SUBSTRUCTURE
     1 UNK         1 GROUP             0       ****    0 ROOT    
