@<TRIPOS>MOLECULE
3R134
127   129    1
SMALL
USER_CHARGES


@<TRIPOS>ATOM
      1 CA         36.7832  -44.9345  -54.3261 C.3       0 UNK        -0.1968 
      2 C          35.8254  -46.1157  -54.3298 C.2       0 UNK         0.4852 
      3 O          35.1934  -46.3891  -53.3080 O.2       0 UNK        -0.5359 
      4 N          35.7255  -46.8255  -55.4663 N.am      1 UNK        -0.4300 
      5 CA         34.8083  -47.9516  -55.7232 C.3       1 UNK         0.0863 
      6 C6         33.3185  -47.5009  -55.7972 C.3       11 UNK        -0.0953 
      7 S7         32.9696  -46.4839  -57.2709 S.3       11 UNK        -0.2369 
      8 C8         33.1567  -44.7816  -56.6530 C.3       11 UNK         0.0226 
      9 C9         32.0152  -44.3540  -55.7432 C.ar      11 UNK        -0.0699 
     10 C10        32.1992  -44.2764  -54.3582 C.ar      11 UNK        -0.0804 
     11 C11        31.1668  -43.8228  -53.5311 C.ar      11 UNK        -0.0871 
     12 C12        29.9447  -43.4503  -54.0996 C.ar      11 UNK        -0.1008 
     13 C13        29.7455  -43.5381  -55.4796 C.ar      11 UNK        -0.0735 
     14 C14        30.7851  -43.9882  -56.2971 C.ar      11 UNK        -0.0945 
     15 C15        28.4130  -43.1230  -56.0803 C.3       11 UNK         0.0169 
     16 S16        27.2585  -44.5243  -56.1491 S.3       11 UNK        -0.2669 
     17 C17        25.6761  -43.6198  -56.2448 C.3       11 UNK        -0.0850 
     18 CA         24.4625  -44.5377  -56.5423 C.3       10 UNK         0.0855 
     19 C          23.1307  -43.7365  -56.4495 C.2       10 UNK         0.5543 
     20 N          22.3799  -43.5611  -57.5302 N.am      10 UNK        -0.7343 
     21 O          22.7726  -43.2670  -55.3723 O.2       10 UNK        -0.5027 
     22 N          24.6560  -45.2770  -57.7973 N.am      10 UNK        -0.4495 
     23 C          23.9889  -46.3677  -58.1852 C.2       10 UNK         0.4903 
     24 O          23.0766  -46.8794  -57.5361 O.2       10 UNK        -0.4860 
     25 CA         24.4205  -47.0154  -59.5153 C.3       9 UNK         0.0227 
     26 CB         23.6722  -46.3912  -60.7093 C.3       9 UNK        -0.1964 
     27 N          25.8766  -47.0404  -59.7312 N.am      9 UNK        -0.4231 
     28 C          26.7275  -46.0234  -59.9394 C.2       9 UNK         0.5014 
     29 O          26.3690  -44.8490  -60.0436 O.2       9 UNK        -0.5270 
     30 CA         28.2296  -46.3701  -59.9677 C.3       8 UNK         0.0284 
     31 CB         29.1209  -45.1286  -59.7772 C.3       8 UNK        -0.1977 
     32 N          28.5583  -47.3496  -58.9290 N.am      8 UNK        -0.4342 
     33 C          28.5757  -48.6778  -59.0974 C.2       8 UNK         0.5039 
     34 O          28.3669  -49.2319  -60.1767 O.2       8 UNK        -0.5547 
     35 CA         28.8108  -49.5352  -57.8429 C.3       7 UNK         0.0281 
     36 CB         30.3123  -49.8037  -57.6524 C.3       7 UNK        -0.1963 
     37 N          28.2650  -48.9445  -56.6160 N.am      7 UNK        -0.4444 
     38 C          26.9571  -48.7303  -56.3765 C.2       7 UNK         0.5104 
     39 O          26.0756  -49.0008  -57.1920 O.2       7 UNK        -0.5100 
     40 CA         26.5475  -48.1275  -55.0168 C.3       6 UNK         0.0396 
     41 CB         25.5743  -49.0474  -54.2589 C.3       6 UNK        -0.1801 
     42 N          27.7155  -47.8504  -54.1876 N.am      6 UNK        -0.4747 
     43 C          27.8693  -46.8981  -53.2659 C.2       6 UNK         0.5012 
     44 O          26.9540  -46.1767  -52.8668 O.2       6 UNK        -0.5003 
     45 CA         29.3077  -46.7374  -52.7151 C.3       5 UNK         0.0782 
     46 C46        29.4126  -45.7101  -51.5594 C.3       11 UNK        -0.0868 
     47 S47        31.1561  -45.3162  -51.1811 S.3       11 UNK        -0.2515 
     48 C48        31.3736  -43.7166  -52.0258 C.3       11 UNK         0.0199 
     49 N          29.9383  -48.0136  -52.3458 N.am      5 UNK        -0.4607 
     50 C          30.3866  -48.9603  -53.1774 C.2       4 UNK         0.5031 
     51 O          30.2442  -48.9134  -54.4017 O.2       4 UNK        -0.5119 
     52 CA         31.1295  -50.1326  -52.5207 C.3       4 UNK         0.0263 
     53 CB         31.2962  -51.3336  -53.4700 C.3       4 UNK        -0.1967 
     54 N          32.4414  -49.6671  -52.0690 N.am      4 UNK        -0.4237 
     55 C          32.6668  -49.0609  -50.8921 C.2       3 UNK         0.4908 
     56 O          31.7921  -48.9335  -50.0329 O.2       3 UNK        -0.5102 
     57 CA         34.0587  -48.4461  -50.6307 C.3       3 UNK         0.0241 
     58 CB         34.5445  -48.6771  -49.1837 C.3       3 UNK        -0.1971 
     59 N          35.0842  -48.8190  -51.6117 N.am      3 UNK        -0.4139 
     60 C          35.6321  -50.0286  -51.8181 C.2       2 UNK         0.5016 
     61 O          35.4036  -51.0152  -51.1166 O.2       2 UNK        -0.5319 
     62 CA         36.5633  -50.1612  -53.0466 C.3       2 UNK         0.0286 
     63 CB         36.6577  -51.6122  -53.5655 C.3       2 UNK        -0.1963 
     64 N          36.2109  -49.2450  -54.1440 N.am      2 UNK        -0.4790 
     65 C          35.0153  -49.1386  -54.7498 C.2       1 UNK         0.5024 
     66 O          34.0854  -49.9106  -54.5224 O.2       1 UNK        -0.4888 
     67 H67        36.2414  -44.0163  -54.1007 H         1 UNK         0.0892 
     68 H68        37.2802  -44.8076  -55.2876 H         1 UNK         0.0892 
     69 H69        37.5484  -45.0746  -53.5632 H         1 UNK         0.0892 
     70 H70        36.2942  -46.5577  -56.2580 H         1 UNK         0.3107 
     71 H71        35.0823  -48.3487  -56.7018 H         1 UNK         0.0773 
     72 H72        32.6521  -48.3616  -55.8726 H         1 UNK         0.0680 
     73 H73        33.0148  -46.9765  -54.8905 H         1 UNK         0.0680 
     74 H74        34.1157  -44.6684  -56.1501 H         1 UNK         0.0650 
     75 H75        33.1939  -44.1099  -57.5119 H         1 UNK         0.0650 
     76 H76        33.1476  -44.5599  -53.9222 H         1 UNK         0.1397 
     77 H77        29.1424  -43.0932  -53.4685 H         1 UNK         0.1363 
     78 H78        30.6445  -44.0443  -57.3671 H         1 UNK         0.1355 
     79 H79        28.5538  -42.7204  -57.0846 H         1 UNK         0.0707 
     80 H80        27.9800  -42.3179  -55.4844 H         1 UNK         0.0707 
     81 H81        25.7584  -42.8447  -57.0095 H         1 UNK         0.1034 
     82 H82        25.5353  -43.1002  -55.2947 H         1 UNK         0.1034 
     83 H83        24.4137  -45.2814  -55.7446 H         1 UNK         0.0482 
     84 H84        21.5184  -43.0433  -57.4573 H         1 UNK         0.3460 
     85 H85        22.6670  -43.9465  -58.4152 H         1 UNK         0.3460 
     86 H86        25.3670  -44.9178  -58.4278 H         1 UNK         0.2989 
     87 H87        24.1233  -48.0637  -59.4571 H         1 UNK         0.0559 
     88 H88        22.5929  -46.4824  -60.5801 H         1 UNK         0.0848 
     89 H89        23.9293  -46.8908  -61.6432 H         1 UNK         0.0848 
     90 H90        23.8937  -45.3300  -60.8249 H         1 UNK         0.0848 
     91 H91        26.2960  -47.9535  -59.6100 H         1 UNK         0.3144 
     92 H92        28.4462  -46.7879  -60.9531 H         1 UNK         0.0727 
     93 H93        30.1781  -45.3945  -59.7596 H         1 UNK         0.0790 
     94 H94        28.8874  -44.6089  -58.8481 H         1 UNK         0.0790 
     95 H95        28.9794  -44.4172  -60.5918 H         1 UNK         0.0790 
     96 H96        28.6985  -46.9874  -57.9962 H         1 UNK         0.3215 
     97 H97        28.3089  -50.4923  -58.0005 H         1 UNK         0.0863 
     98 H98        30.4946  -50.4704  -56.8090 H         1 UNK         0.0808 
     99 H99        30.8656  -48.8811  -57.4741 H         1 UNK         0.0808 
    100 H100       30.7412  -50.2758  -58.5373 H         1 UNK         0.0808 
    101 H101       28.9529  -48.7286  -55.9040 H         1 UNK         0.3118 
    102 H102       26.0404  -47.1855  -55.2328 H         1 UNK         0.0546 
    103 H103       24.6832  -49.2502  -54.8545 H         1 UNK         0.0828 
    104 H104       25.2411  -48.5909  -53.3270 H         1 UNK         0.0828 
    105 H105       26.0341  -50.0065  -54.0183 H         1 UNK         0.0828 
    106 H106       28.5449  -48.4078  -54.3738 H         1 UNK         0.3005 
    107 H107       29.8782  -46.3357  -53.5560 H         1 UNK         0.1257 
    108 H108       28.9398  -46.1024  -50.6575 H         1 UNK         0.0775 
    109 H109       28.8838  -44.7857  -51.7950 H         1 UNK         0.0775 
    110 H110       30.6894  -42.9845  -51.5941 H         1 UNK         0.0840 
    111 H111       32.3792  -43.3460  -51.8215 H         1 UNK         0.0840 
    112 H112       30.1389  -48.1298  -51.3601 H         1 UNK         0.2987 
    113 H113       30.5425  -50.4716  -51.6644 H         1 UNK         0.0785 
    114 H114       31.8034  -51.0611  -54.3954 H         1 UNK         0.0798 
    115 H115       30.3242  -51.7427  -53.7476 H         1 UNK         0.0798 
    116 H116       31.8655  -52.1355  -53.0000 H         1 UNK         0.0798 
    117 H117       33.1852  -49.7125  -52.7589 H         1 UNK         0.3079 
    118 H118       33.9233  -47.3706  -50.7572 H         1 UNK         0.0794 
    119 H119       34.6201  -49.7378  -48.9436 H         1 UNK         0.0786 
    120 H120       33.8545  -48.2331  -48.4651 H         1 UNK         0.0786 
    121 H121       35.5207  -48.2226  -49.0151 H         1 UNK         0.0786 
    122 H122       35.3144  -48.0768  -52.2688 H         1 UNK         0.3032 
    123 H123       37.5559  -49.8674  -52.7010 H         1 UNK         0.1094 
    124 H124       37.0501  -52.2789  -52.7967 H         1 UNK         0.0794 
    125 H125       35.6831  -51.9998  -53.8641 H         1 UNK         0.0794 
    126 H126       37.3249  -51.6840  -54.4244 H         1 UNK         0.0794 
    127 H127       36.9156  -48.5629  -54.3894 H         1 UNK         0.3016 
@<TRIPOS>BOND
     1    1    2 1    
     2    1   67 1    
     3    1   68 1    
     4    1   69 1    
     5    2    3 2    
     6    2    4 am   BACKBONE|DICT|INTERRES
     7    4    5 1    
     8    4   70 1    
     9    5    6 1    
    10    5   65 1    
    11    5   71 1    
    12    6    7 1    
    13    6   72 1    
    14    6   73 1    
    15    7    8 1    
    16    8    9 1    
    17    8   74 1    
    18    8   75 1    
    19    9   10 ar   
    20    9   14 ar   
    21   10   11 ar   
    22   10   76 1    
    23   11   12 ar   
    24   11   48 1    
    25   12   13 ar   
    26   12   77 1    
    27   13   14 ar   
    28   13   15 1    
    29   14   78 1    
    30   15   16 1    
    31   15   79 1    
    32   15   80 1    
    33   16   17 1    
    34   17   18 1    
    35   17   81 1    
    36   17   82 1    
    37   18   19 1    
    38   18   22 1    
    39   18   83 1    
    40   19   20 am   BACKBONE|DICT|INTERRES
    41   19   21 2    
    42   20   84 1    
    43   20   85 1    
    44   22   23 am   BACKBONE|DICT|INTERRES
    45   22   86 1    
    46   23   24 2    
    47   23   25 1    
    48   25   26 1    
    49   25   27 1    
    50   25   87 1    
    51   26   88 1    
    52   26   89 1    
    53   26   90 1    
    54   27   28 am   BACKBONE|DICT|INTERRES
    55   27   91 1    
    56   28   29 2    
    57   28   30 1    
    58   30   31 1    
    59   30   32 1    
    60   30   92 1    
    61   31   93 1    
    62   31   94 1    
    63   31   95 1    
    64   32   33 am   BACKBONE|DICT|INTERRES
    65   32   96 1    
    66   33   34 2    
    67   33   35 1    
    68   35   36 1    
    69   35   37 1    
    70   35   97 1    
    71   36   98 1    
    72   36   99 1    
    73   36  100 1    
    74   37   38 am   BACKBONE|DICT|INTERRES
    75   37  101 1    
    76   38   39 2    
    77   38   40 1    
    78   40   41 1    
    79   40   42 1    
    80   40  102 1    
    81   41  103 1    
    82   41  104 1    
    83   41  105 1    
    84   42   43 am   BACKBONE|DICT|INTERRES
    85   42  106 1    
    86   43   44 2    
    87   43   45 1    
    88   45   46 1    
    89   45   49 1    
    90   45  107 1    
    91   46   47 1    
    92   46  108 1    
    93   46  109 1    
    94   47   48 1    
    95   48  110 1    
    96   48  111 1    
    97   49   50 am   BACKBONE|DICT|INTERRES
    98   49  112 1    
    99   50   51 2    
   100   50   52 1    
   101   52   53 1    
   102   52   54 1    
   103   52  113 1    
   104   53  114 1    
   105   53  115 1    
   106   53  116 1    
   107   54   55 am   BACKBONE|DICT|INTERRES
   108   54  117 1    
   109   55   56 2    
   110   55   57 1    
   111   57   58 1    
   112   57   59 1    
   113   57  118 1    
   114   58  119 1    
   115   58  120 1    
   116   58  121 1    
   117   59   60 am   BACKBONE|DICT|INTERRES
   118   59  122 1    
   119   60   61 2    
   120   60   62 1    
   121   62   63 1    
   122   62   64 1    
   123   62  123 1    
   124   63  124 1    
   125   63  125 1    
   126   63  126 1    
   127   64   65 am   BACKBONE|DICT|INTERRES
   128   64  127 1    
   129   65   66 2    
@<TRIPOS>SUBSTRUCTURE
     1 UNK         1 GROUP             0       ****    0 ROOT    
