@<TRIPOS>MOLECULE
3R134
127   129    1
SMALL
USER_CHARGES


@<TRIPOS>ATOM
      1 CA         34.7701  -46.4342  -50.5328 C.3       0 UNK        -0.1968 
      2 C          35.4315  -46.4143  -51.9029 C.2       0 UNK         0.4852 
      3 O          36.5736  -46.8550  -52.0390 O.2       0 UNK        -0.5359 
      4 N          34.7147  -45.9203  -52.9205 N.am      1 UNK        -0.4300 
      5 CA         35.1728  -45.7763  -54.3089 C.3       1 UNK         0.0863 
      6 C6         34.1687  -44.9686  -55.1711 C.3       11 UNK        -0.0953 
      7 S7         32.4529  -45.5927  -55.0797 S.3       11 UNK        -0.2369 
      8 C8         31.5832  -44.1292  -54.4411 C.3       11 UNK         0.0226 
      9 C9         30.1367  -44.4621  -54.1193 C.ar      11 UNK        -0.0699 
     10 C10        29.7261  -44.6204  -52.7924 C.ar      11 UNK        -0.0804 
     11 C11        28.4065  -44.9759  -52.4975 C.ar      11 UNK        -0.0871 
     12 C12        27.4909  -45.1443  -53.5415 C.ar      11 UNK        -0.1008 
     13 C13        27.8863  -44.9718  -54.8708 C.ar      11 UNK        -0.0735 
     14 C14        29.2115  -44.6300  -55.1533 C.ar      11 UNK        -0.0945 
     15 C15        26.8875  -45.1960  -55.9961 C.3       11 UNK         0.0169 
     16 S16        25.9672  -43.6804  -56.4111 S.3       11 UNK        -0.2669 
     17 C17        27.1249  -42.8412  -57.5503 C.3       11 UNK        -0.0850 
     18 CA         26.5177  -42.5577  -58.9517 C.3       10 UNK         0.0855 
     19 C          27.5419  -41.7866  -59.8364 C.2       10 UNK         0.5543 
     20 N          28.0639  -42.3663  -60.9104 N.am      10 UNK        -0.7343 
     21 O          27.8669  -40.6400  -59.5386 O.2       10 UNK        -0.5027 
     22 N          25.9443  -43.7710  -59.5617 N.am      10 UNK        -0.4495 
     23 C          25.1228  -43.7945  -60.6224 C.2       10 UNK         0.4903 
     24 O          24.7737  -42.7929  -61.2472 O.2       10 UNK        -0.4860 
     25 CA         24.5800  -45.1704  -61.0470 C.3       9 UNK         0.0227 
     26 CB         25.5343  -45.8443  -62.0459 C.3       9 UNK        -0.1964 
     27 N          24.3899  -46.0467  -59.8917 N.am      9 UNK        -0.4231 
     28 C          23.3717  -45.9775  -59.0286 C.2       9 UNK         0.5014 
     29 O          22.3720  -45.2840  -59.2263 O.2       9 UNK        -0.5270 
     30 CA         23.4950  -46.7832  -57.7123 C.3       8 UNK         0.0284 
     31 CB         22.1217  -47.0613  -57.0710 C.3       8 UNK        -0.1977 
     32 N          24.2467  -48.0475  -57.7707 N.am      8 UNK        -0.4342 
     33 C          25.5539  -48.2050  -58.0156 C.2       8 UNK         0.5039 
     34 O          26.2909  -47.3054  -58.4273 O.2       8 UNK        -0.5547 
     35 CA         26.1351  -49.6111  -57.7871 C.3       7 UNK         0.0281 
     36 CB         26.0854  -50.4283  -59.0880 C.3       7 UNK        -0.1963 
     37 N          27.5210  -49.5416  -57.3132 N.am      7 UNK        -0.4444 
     38 C          27.8997  -48.9933  -56.1503 C.2       7 UNK         0.5104 
     39 O          27.1054  -48.6091  -55.2871 O.2       7 UNK        -0.5100 
     40 CA         29.4185  -48.8346  -55.9415 C.3       6 UNK         0.0396 
     41 CB         30.0311  -47.8979  -56.9984 C.3       6 UNK        -0.1801 
     42 N          29.7264  -48.2974  -54.6160 N.am      6 UNK        -0.4747 
     43 C          29.7497  -49.0152  -53.4869 C.2       6 UNK         0.5012 
     44 O          29.5873  -50.2377  -53.4408 O.2       6 UNK        -0.5003 
     45 CA         29.9795  -48.2244  -52.1842 C.3       5 UNK         0.0782 
     46 C46        28.6391  -47.9312  -51.4669 C.3       11 UNK        -0.0868 
     47 S47        28.8412  -46.5870  -50.2498 S.3       11 UNK        -0.2515 
     48 C48        27.9685  -45.1981  -51.0540 C.3       11 UNK         0.0199 
     49 N          30.9195  -48.9325  -51.3106 N.am      5 UNK        -0.4607 
     50 C          32.2190  -49.0769  -51.5837 C.2       4 UNK         0.5031 
     51 O          32.7800  -48.5196  -52.5362 O.2       4 UNK        -0.5119 
     52 CA         33.0297  -49.9947  -50.6512 C.3       4 UNK         0.0263 
     53 CB         32.4873  -51.4393  -50.6919 C.3       4 UNK        -0.1967 
     54 N          34.3931  -49.9386  -51.1541 N.am      4 UNK        -0.4237 
     55 C          35.5104  -50.5593  -50.7663 C.2       3 UNK         0.4908 
     56 O          35.5964  -51.2738  -49.7668 O.2       3 UNK        -0.5102 
     57 CA         36.7461  -50.3141  -51.6630 C.3       3 UNK         0.0241 
     58 CB         37.6744  -51.5439  -51.7542 C.3       3 UNK        -0.1971 
     59 N          36.3837  -49.7966  -52.9965 N.am      3 UNK        -0.4139 
     60 C          35.6868  -50.4313  -53.9576 C.2       2 UNK         0.5016 
     61 O          35.4254  -51.6346  -53.9309 O.2       2 UNK        -0.5319 
     62 CA         35.1177  -49.5611  -55.0957 C.3       2 UNK         0.0286 
     63 CB         33.8018  -50.1334  -55.6587 C.3       2 UNK        -0.1963 
     64 N          34.8561  -48.1971  -54.6282 N.am      2 UNK        -0.4790 
     65 C          35.5546  -47.1117  -54.9841 C.2       1 UNK         0.5024 
     66 O          36.4888  -47.1349  -55.7866 O.2       1 UNK        -0.4888 
     67 H67        33.6885  -46.3198  -50.6041 H         1 UNK         0.0892 
     68 H68        34.9769  -47.3742  -50.0231 H         1 UNK         0.0892 
     69 H69        35.1609  -45.6237  -49.9184 H         1 UNK         0.0892 
     70 H70        33.7624  -45.6271  -52.7572 H         1 UNK         0.3107 
     71 H71        36.0960  -45.1943  -54.2650 H         1 UNK         0.0773 
     72 H72        34.1865  -43.9255  -54.8521 H         1 UNK         0.0680 
     73 H73        34.4770  -44.9518  -56.2183 H         1 UNK         0.0680 
     74 H74        31.6228  -43.3304  -55.1832 H         1 UNK         0.0650 
     75 H75        32.0964  -43.7576  -53.5527 H         1 UNK         0.0650 
     76 H76        30.4373  -44.4954  -51.9871 H         1 UNK         0.1397 
     77 H77        26.4686  -45.4227  -53.3238 H         1 UNK         0.1363 
     78 H78        29.5338  -44.5122  -56.1783 H         1 UNK         0.1355 
     79 H79        27.3973  -45.5778  -56.8805 H         1 UNK         0.0707 
     80 H80        26.1759  -45.9695  -55.7036 H         1 UNK         0.0707 
     81 H81        28.0359  -43.4314  -57.6549 H         1 UNK         0.1034 
     82 H82        27.4308  -41.9073  -57.0743 H         1 UNK         0.1034 
     83 H83        25.6829  -41.8696  -58.8041 H         1 UNK         0.0482 
     84 H84        27.7973  -43.3039  -61.1632 H         1 UNK         0.3460 
     85 H85        28.7235  -41.8568  -61.4769 H         1 UNK         0.3460 
     86 H86        26.1692  -44.6423  -59.1038 H         1 UNK         0.2989 
     87 H87        23.6176  -45.0194  -61.5406 H         1 UNK         0.0559 
     88 H88        26.5124  -46.0405  -61.6045 H         1 UNK         0.0848 
     89 H89        25.6907  -45.2138  -62.9224 H         1 UNK         0.0848 
     90 H90        25.1309  -46.7935  -62.3988 H         1 UNK         0.0848 
     91 H91        25.1915  -46.6011  -59.5892 H         1 UNK         0.3144 
     92 H92        24.0399  -46.1306  -57.0279 H         1 UNK         0.0727 
     93 H93        21.5697  -46.1364  -56.8976 H         1 UNK         0.0790 
     94 H94        22.2253  -47.5514  -56.1026 H         1 UNK         0.0790 
     95 H95        21.5036  -47.6964  -57.7068 H         1 UNK         0.0790 
     96 H96        23.7232  -48.8682  -57.5006 H         1 UNK         0.3215 
     97 H97        25.5430  -50.1202  -57.0235 H         1 UNK         0.0863 
     98 H98        26.6692  -49.9596  -59.8816 H         1 UNK         0.0808 
     99 H99        25.0614  -50.5241  -59.4517 H         1 UNK         0.0808 
    100 H100       26.4694  -51.4377  -58.9389 H         1 UNK         0.0808 
    101 H101       28.2343  -49.8073  -57.9758 H         1 UNK         0.3118 
    102 H102       29.8808  -49.8190  -56.0414 H         1 UNK         0.0546 
    103 H103       31.1012  -47.7659  -56.8372 H         1 UNK         0.0828 
    104 H104       29.5657  -46.9125  -56.9828 H         1 UNK         0.0828 
    105 H105       29.9097  -48.2963  -58.0059 H         1 UNK         0.0828 
    106 H106       29.8209  -47.2927  -54.5585 H         1 UNK         0.3005 
    107 H107       30.4448  -47.2758  -52.4599 H         1 UNK         0.1257 
    108 H108       28.2699  -48.8217  -50.9550 H         1 UNK         0.0775 
    109 H109       27.8569  -47.6572  -52.1776 H         1 UNK         0.0775 
    110 H110       26.8947  -45.3839  -51.0003 H         1 UNK         0.0840 
    111 H111       28.1483  -44.2874  -50.4810 H         1 UNK         0.0840 
    112 H112       30.5188  -49.4207  -50.5238 H         1 UNK         0.2987 
    113 H113       33.0017  -49.5977  -49.6351 H         1 UNK         0.0785 
    114 H114       32.5098  -51.8461  -51.7040 H         1 UNK         0.0798 
    115 H115       33.0659  -52.1056  -50.0526 H         1 UNK         0.0798 
    116 H116       31.4555  -51.4884  -50.3430 H         1 UNK         0.0798 
    117 H117       34.4426  -49.3614  -51.9853 H         1 UNK         0.3079 
    118 H118       37.3097  -49.5151  -51.1787 H         1 UNK         0.0794 
    119 H119       38.0733  -51.8030  -50.7728 H         1 UNK         0.0786 
    120 H120       38.5249  -51.3520  -52.4082 H         1 UNK         0.0786 
    121 H121       37.1516  -52.4236  -52.1301 H         1 UNK         0.0786 
    122 H122       36.5420  -48.8016  -53.1156 H         1 UNK         0.3032 
    123 H123       35.8604  -49.5627  -55.8965 H         1 UNK         0.1094 
    124 H124       33.0361  -50.2167  -54.8857 H         1 UNK         0.0794 
    125 H125       33.4039  -49.5021  -56.4535 H         1 UNK         0.0794 
    126 H126       33.9516  -51.1275  -56.0817 H         1 UNK         0.0794 
    127 H127       34.0901  -48.0878  -53.9678 H         1 UNK         0.3016 
@<TRIPOS>BOND
     1    1    2 1    
     2    1   67 1    
     3    1   68 1    
     4    1   69 1    
     5    2    3 2    
     6    2    4 am   BACKBONE|DICT|INTERRES
     7    4    5 1    
     8    4   70 1    
     9    5    6 1    
    10    5   65 1    
    11    5   71 1    
    12    6    7 1    
    13    6   72 1    
    14    6   73 1    
    15    7    8 1    
    16    8    9 1    
    17    8   74 1    
    18    8   75 1    
    19    9   10 ar   
    20    9   14 ar   
    21   10   11 ar   
    22   10   76 1    
    23   11   12 ar   
    24   11   48 1    
    25   12   13 ar   
    26   12   77 1    
    27   13   14 ar   
    28   13   15 1    
    29   14   78 1    
    30   15   16 1    
    31   15   79 1    
    32   15   80 1    
    33   16   17 1    
    34   17   18 1    
    35   17   81 1    
    36   17   82 1    
    37   18   19 1    
    38   18   22 1    
    39   18   83 1    
    40   19   20 am   BACKBONE|DICT|INTERRES
    41   19   21 2    
    42   20   84 1    
    43   20   85 1    
    44   22   23 am   BACKBONE|DICT|INTERRES
    45   22   86 1    
    46   23   24 2    
    47   23   25 1    
    48   25   26 1    
    49   25   27 1    
    50   25   87 1    
    51   26   88 1    
    52   26   89 1    
    53   26   90 1    
    54   27   28 am   BACKBONE|DICT|INTERRES
    55   27   91 1    
    56   28   29 2    
    57   28   30 1    
    58   30   31 1    
    59   30   32 1    
    60   30   92 1    
    61   31   93 1    
    62   31   94 1    
    63   31   95 1    
    64   32   33 am   BACKBONE|DICT|INTERRES
    65   32   96 1    
    66   33   34 2    
    67   33   35 1    
    68   35   36 1    
    69   35   37 1    
    70   35   97 1    
    71   36   98 1    
    72   36   99 1    
    73   36  100 1    
    74   37   38 am   BACKBONE|DICT|INTERRES
    75   37  101 1    
    76   38   39 2    
    77   38   40 1    
    78   40   41 1    
    79   40   42 1    
    80   40  102 1    
    81   41  103 1    
    82   41  104 1    
    83   41  105 1    
    84   42   43 am   BACKBONE|DICT|INTERRES
    85   42  106 1    
    86   43   44 2    
    87   43   45 1    
    88   45   46 1    
    89   45   49 1    
    90   45  107 1    
    91   46   47 1    
    92   46  108 1    
    93   46  109 1    
    94   47   48 1    
    95   48  110 1    
    96   48  111 1    
    97   49   50 am   BACKBONE|DICT|INTERRES
    98   49  112 1    
    99   50   51 2    
   100   50   52 1    
   101   52   53 1    
   102   52   54 1    
   103   52  113 1    
   104   53  114 1    
   105   53  115 1    
   106   53  116 1    
   107   54   55 am   BACKBONE|DICT|INTERRES
   108   54  117 1    
   109   55   56 2    
   110   55   57 1    
   111   57   58 1    
   112   57   59 1    
   113   57  118 1    
   114   58  119 1    
   115   58  120 1    
   116   58  121 1    
   117   59   60 am   BACKBONE|DICT|INTERRES
   118   59  122 1    
   119   60   61 2    
   120   60   62 1    
   121   62   63 1    
   122   62   64 1    
   123   62  123 1    
   124   63  124 1    
   125   63  125 1    
   126   63  126 1    
   127   64   65 am   BACKBONE|DICT|INTERRES
   128   64  127 1    
   129   65   66 2    
@<TRIPOS>SUBSTRUCTURE
     1 UNK         1 GROUP             0       ****    0 ROOT    
