@<TRIPOS>MOLECULE
3R134
127   129    1
SMALL
USER_CHARGES


@<TRIPOS>ATOM
      1 CA         36.7347  -44.2210  -57.7551 C.3       0 UNK        -0.1968 
      2 C          35.9768  -44.7585  -56.5498 C.2       0 UNK         0.4852 
      3 O          36.5008  -44.7130  -55.4361 O.2       0 UNK        -0.5359 
      4 N          34.7547  -45.2648  -56.7745 N.am      1 UNK        -0.4300 
      5 CA         33.8356  -45.8295  -55.7730 C.3       1 UNK         0.0863 
      6 C6         33.2833  -44.7806  -54.7673 C.3       11 UNK        -0.0953 
      7 S7         32.4114  -43.4254  -55.6181 S.3       11 UNK        -0.2369 
      8 C8         32.0477  -42.3023  -54.2337 C.3       11 UNK         0.0226 
      9 C9         30.7351  -42.6382  -53.5376 C.ar      11 UNK        -0.0699 
     10 C10        30.7212  -43.0598  -52.2029 C.ar      11 UNK        -0.0804 
     11 C11        29.5077  -43.2850  -51.5428 C.ar      11 UNK        -0.0871 
     12 C12        28.3064  -43.1099  -52.2351 C.ar      11 UNK        -0.1008 
     13 C13        28.3075  -42.6979  -53.5698 C.ar      11 UNK        -0.0735 
     14 C14        29.5240  -42.4605  -54.2150 C.ar      11 UNK        -0.0945 
     15 C15        26.9889  -42.4739  -54.2925 C.3       11 UNK         0.0169 
     16 S16        26.4598  -43.9639  -55.1875 S.3       11 UNK        -0.2669 
     17 C17        27.0064  -43.5649  -56.8817 C.3       11 UNK        -0.0850 
     18 CA         26.9115  -44.8012  -57.8154 C.3       10 UNK         0.0855 
     19 C          26.9626  -44.4537  -59.3316 C.2       10 UNK         0.5543 
     20 N          26.8162  -45.4443  -60.2016 N.am      10 UNK        -0.7343 
     21 O          27.1244  -43.3006  -59.7256 O.2       10 UNK        -0.5027 
     22 N          27.8543  -45.8631  -57.4334 N.am      10 UNK        -0.4495 
     23 C          29.1824  -45.8682  -57.6184 C.2       10 UNK         0.4903 
     24 O          29.8234  -44.9355  -58.1021 O.2       10 UNK        -0.4860 
     25 CA         29.9201  -47.1558  -57.2175 C.3       9 UNK         0.0227 
     26 CB         30.2622  -47.1427  -55.7181 C.3       9 UNK        -0.1964 
     27 N          29.1167  -48.3383  -57.5400 N.am      9 UNK        -0.4231 
     28 C          29.0775  -48.9201  -58.7484 C.2       9 UNK         0.5014 
     29 O          29.8379  -48.6265  -59.6716 O.2       9 UNK        -0.5270 
     30 CA         28.0075  -50.0057  -58.9862 C.3       8 UNK         0.0284 
     31 CB         28.5825  -51.4086  -58.7348 C.3       8 UNK        -0.1977 
     32 N          26.7985  -49.8296  -58.1776 N.am      8 UNK        -0.4342 
     33 C          25.9104  -48.8376  -58.3328 C.2       8 UNK         0.5039 
     34 O          25.9699  -48.0026  -59.2355 O.2       8 UNK        -0.5547 
     35 CA         24.7941  -48.7251  -57.2740 C.3       7 UNK         0.0281 
     36 CB         23.5276  -49.4527  -57.7521 C.3       7 UNK        -0.1963 
     37 N          25.1658  -49.2156  -55.9371 N.am      7 UNK        -0.4444 
     38 C          26.2081  -48.7695  -55.2220 C.2       7 UNK         0.5104 
     39 O          26.9840  -47.9085  -55.6374 O.2       7 UNK        -0.5100 
     40 CA         26.4630  -49.4464  -53.8639 C.3       6 UNK         0.0396 
     41 CB         26.8691  -50.9175  -54.0616 C.3       6 UNK        -0.1801 
     42 N          27.5257  -48.7676  -53.1164 N.am      6 UNK        -0.4747 
     43 C          27.3799  -47.6109  -52.4480 C.2       6 UNK         0.5012 
     44 O          26.2959  -47.0374  -52.3276 O.2       6 UNK        -0.5003 
     45 CA         28.6400  -47.0165  -51.7781 C.3       5 UNK         0.0782 
     46 C46        28.3092  -46.2095  -50.4939 C.3       11 UNK        -0.0868 
     47 S47        29.7904  -45.4214  -49.7693 S.3       11 UNK        -0.2515 
     48 C48        29.4863  -43.6523  -50.0646 C.3       11 UNK         0.0199 
     49 N          29.6023  -48.0884  -51.5078 N.am      5 UNK        -0.4607 
     50 C          30.8664  -48.1227  -51.9378 C.2       4 UNK         0.5031 
     51 O          31.3923  -47.2254  -52.5944 O.2       4 UNK        -0.5119 
     52 CA         31.6866  -49.3839  -51.5976 C.3       4 UNK         0.0263 
     53 CB         30.9603  -50.3903  -50.6745 C.3       4 UNK        -0.1967 
     54 N          32.1566  -50.0617  -52.8092 N.am      4 UNK        -0.4237 
     55 C          31.4168  -50.4708  -53.8501 C.2       3 UNK         0.4908 
     56 O          30.1898  -50.3571  -53.9053 O.2       3 UNK        -0.5102 
     57 CA         32.1872  -51.0934  -55.0326 C.3       3 UNK         0.0241 
     58 CB         31.2843  -51.3556  -56.2508 C.3       3 UNK        -0.1971 
     59 N          33.3203  -50.2635  -55.4543 N.am      3 UNK        -0.4139 
     60 C          34.5284  -50.2431  -54.8743 C.2       2 UNK         0.5016 
     61 O          34.8255  -50.9305  -53.8967 O.2       2 UNK        -0.5319 
     62 CA         35.5608  -49.2611  -55.4533 C.3       2 UNK         0.0286 
     63 CB         36.3338  -49.9076  -56.6139 C.3       2 UNK        -0.1963 
     64 N          34.9590  -48.0028  -55.9062 N.am      2 UNK        -0.4790 
     65 C          34.4374  -47.0761  -55.0866 C.2       1 UNK         0.5024 
     66 O          34.4441  -47.1793  -53.8592 O.2       1 UNK        -0.4888 
     67 H67        36.9640  -43.1652  -57.6125 H         1 UNK         0.0892 
     68 H68        37.6736  -44.7601  -57.8788 H         1 UNK         0.0892 
     69 H69        36.1623  -44.3212  -58.6771 H         1 UNK         0.0892 
     70 H70        34.3953  -45.2521  -57.7188 H         1 UNK         0.3107 
     71 H71        32.9841  -46.2042  -56.3418 H         1 UNK         0.0773 
     72 H72        34.0900  -44.3633  -54.1627 H         1 UNK         0.0680 
     73 H73        32.5819  -45.2428  -54.0704 H         1 UNK         0.0680 
     74 H74        31.9838  -41.2856  -54.6238 H         1 UNK         0.0650 
     75 H75        32.8806  -42.3035  -53.5290 H         1 UNK         0.0650 
     76 H76        31.6522  -43.1853  -51.6671 H         1 UNK         0.1397 
     77 H77        27.3644  -43.2741  -51.7299 H         1 UNK         0.1363 
     78 H78        29.5319  -42.1247  -55.2428 H         1 UNK         0.1355 
     79 H79        26.2125  -42.2077  -53.5736 H         1 UNK         0.0707 
     80 H80        27.0675  -41.6263  -54.9752 H         1 UNK         0.0707 
     81 H81        28.0251  -43.1749  -56.8650 H         1 UNK         0.1034 
     82 H82        26.3721  -42.7551  -57.2471 H         1 UNK         0.1034 
     83 H83        25.9182  -45.2290  -57.6717 H         1 UNK         0.0482 
     84 H84        26.6214  -46.3894  -59.8750 H         1 UNK         0.3460 
     85 H85        26.8453  -45.2479  -61.1888 H         1 UNK         0.3460 
     86 H86        27.4419  -46.6543  -56.9481 H         1 UNK         0.2989 
     87 H87        30.8590  -47.1912  -57.7739 H         1 UNK         0.0559 
     88 H88        30.7630  -46.2161  -55.4376 H         1 UNK         0.0848 
     89 H89        30.9262  -47.9644  -55.4537 H         1 UNK         0.0848 
     90 H90        29.3765  -47.2172  -55.0891 H         1 UNK         0.0848 
     91 H91        28.4147  -48.5910  -56.8534 H         1 UNK         0.3144 
     92 H92        27.7184  -49.9437  -60.0377 H         1 UNK         0.0727 
     93 H93        27.8932  -52.1833  -59.0713 H         1 UNK         0.0790 
     94 H94        28.7834  -51.5784  -57.6775 H         1 UNK         0.0790 
     95 H95        29.5190  -51.5538  -59.2756 H         1 UNK         0.0790 
     96 H96        26.6558  -50.4798  -57.4190 H         1 UNK         0.3215 
     97 H97        24.5593  -47.6632  -57.1731 H         1 UNK         0.0863 
     98 H98        23.6867  -50.5284  -57.8378 H         1 UNK         0.0808 
     99 H99        23.2169  -49.0904  -58.7333 H         1 UNK         0.0808 
    100 H100       22.6927  -49.2882  -57.0706 H         1 UNK         0.0808 
    101 H101       24.5726  -49.9282  -55.5358 H         1 UNK         0.3118 
    102 H102       25.5407  -49.4100  -53.2807 H         1 UNK         0.0546 
    103 H103       27.1182  -51.3914  -53.1119 H         1 UNK         0.0828 
    104 H104       27.7359  -51.0135  -54.7168 H         1 UNK         0.0828 
    105 H105       26.0601  -51.4989  -54.5048 H         1 UNK         0.0828 
    106 H106       28.4581  -49.1534  -53.2210 H         1 UNK         0.3005 
    107 H107       29.0532  -46.3194  -52.5119 H         1 UNK         0.1257 
    108 H108       27.8706  -46.8634  -49.7383 H         1 UNK         0.0775 
    109 H109       27.5601  -45.4431  -50.6958 H         1 UNK         0.0775 
    110 H110       28.5352  -43.3695  -49.6102 H         1 UNK         0.0840 
    111 H111       30.2497  -43.0762  -49.5395 H         1 UNK         0.0840 
    112 H112       29.2470  -48.8787  -50.9894 H         1 UNK         0.2987 
    113 H113       32.5766  -49.0326  -51.0734 H         1 UNK         0.0785 
    114 H114       31.6147  -51.2241  -50.4199 H         1 UNK         0.0798 
    115 H115       30.6644  -49.9242  -49.7337 H         1 UNK         0.0798 
    116 H116       30.0671  -50.8090  -51.1402 H         1 UNK         0.0798 
    117 H117       33.1603  -50.1865  -52.8860 H         1 UNK         0.3079 
    118 H118       32.5656  -52.0588  -54.6897 H         1 UNK         0.0794 
    119 H119       30.4623  -52.0224  -55.9874 H         1 UNK         0.0786 
    120 H120       31.8360  -51.8302  -57.0624 H         1 UNK         0.0786 
    121 H121       30.8502  -50.4320  -56.6334 H         1 UNK         0.0786 
    122 H122       33.1578  -49.6372  -56.2286 H         1 UNK         0.3032 
    123 H123       36.2724  -49.0293  -54.6570 H         1 UNK         0.1094 
    124 H124       35.6811  -50.1474  -57.4542 H         1 UNK         0.0794 
    125 H125       37.1243  -49.2511  -56.9783 H         1 UNK         0.0794 
    126 H126       36.8089  -50.8367  -56.2952 H         1 UNK         0.0794 
    127 H127       34.9539  -47.8285  -56.9012 H         1 UNK         0.3016 
@<TRIPOS>BOND
     1    1    2 1    
     2    1   67 1    
     3    1   68 1    
     4    1   69 1    
     5    2    3 2    
     6    2    4 am   BACKBONE|DICT|INTERRES
     7    4    5 1    
     8    4   70 1    
     9    5    6 1    
    10    5   65 1    
    11    5   71 1    
    12    6    7 1    
    13    6   72 1    
    14    6   73 1    
    15    7    8 1    
    16    8    9 1    
    17    8   74 1    
    18    8   75 1    
    19    9   10 ar   
    20    9   14 ar   
    21   10   11 ar   
    22   10   76 1    
    23   11   12 ar   
    24   11   48 1    
    25   12   13 ar   
    26   12   77 1    
    27   13   14 ar   
    28   13   15 1    
    29   14   78 1    
    30   15   16 1    
    31   15   79 1    
    32   15   80 1    
    33   16   17 1    
    34   17   18 1    
    35   17   81 1    
    36   17   82 1    
    37   18   19 1    
    38   18   22 1    
    39   18   83 1    
    40   19   20 am   BACKBONE|DICT|INTERRES
    41   19   21 2    
    42   20   84 1    
    43   20   85 1    
    44   22   23 am   BACKBONE|DICT|INTERRES
    45   22   86 1    
    46   23   24 2    
    47   23   25 1    
    48   25   26 1    
    49   25   27 1    
    50   25   87 1    
    51   26   88 1    
    52   26   89 1    
    53   26   90 1    
    54   27   28 am   BACKBONE|DICT|INTERRES
    55   27   91 1    
    56   28   29 2    
    57   28   30 1    
    58   30   31 1    
    59   30   32 1    
    60   30   92 1    
    61   31   93 1    
    62   31   94 1    
    63   31   95 1    
    64   32   33 am   BACKBONE|DICT|INTERRES
    65   32   96 1    
    66   33   34 2    
    67   33   35 1    
    68   35   36 1    
    69   35   37 1    
    70   35   97 1    
    71   36   98 1    
    72   36   99 1    
    73   36  100 1    
    74   37   38 am   BACKBONE|DICT|INTERRES
    75   37  101 1    
    76   38   39 2    
    77   38   40 1    
    78   40   41 1    
    79   40   42 1    
    80   40  102 1    
    81   41  103 1    
    82   41  104 1    
    83   41  105 1    
    84   42   43 am   BACKBONE|DICT|INTERRES
    85   42  106 1    
    86   43   44 2    
    87   43   45 1    
    88   45   46 1    
    89   45   49 1    
    90   45  107 1    
    91   46   47 1    
    92   46  108 1    
    93   46  109 1    
    94   47   48 1    
    95   48  110 1    
    96   48  111 1    
    97   49   50 am   BACKBONE|DICT|INTERRES
    98   49  112 1    
    99   50   51 2    
   100   50   52 1    
   101   52   53 1    
   102   52   54 1    
   103   52  113 1    
   104   53  114 1    
   105   53  115 1    
   106   53  116 1    
   107   54   55 am   BACKBONE|DICT|INTERRES
   108   54  117 1    
   109   55   56 2    
   110   55   57 1    
   111   57   58 1    
   112   57   59 1    
   113   57  118 1    
   114   58  119 1    
   115   58  120 1    
   116   58  121 1    
   117   59   60 am   BACKBONE|DICT|INTERRES
   118   59  122 1    
   119   60   61 2    
   120   60   62 1    
   121   62   63 1    
   122   62   64 1    
   123   62  123 1    
   124   63  124 1    
   125   63  125 1    
   126   63  126 1    
   127   64   65 am   BACKBONE|DICT|INTERRES
   128   64  127 1    
   129   65   66 2    
@<TRIPOS>SUBSTRUCTURE
     1 UNK         1 GROUP             0       ****    0 ROOT    
