@<TRIPOS>MOLECULE
3R134
127   129    1
SMALL
USER_CHARGES


@<TRIPOS>ATOM
      1 CA         32.1171  -46.6126  -59.8612 C.3       0 UNK        -0.1968 
      2 C          30.7259  -46.5157  -59.2399 C.2       0 UNK         0.4852 
      3 O          29.7609  -46.3709  -59.9873 O.2       0 UNK        -0.5359 
      4 N          30.5474  -46.5838  -57.9109 N.am      1 UNK        -0.4300 
      5 CA         31.5047  -46.8091  -56.8230 C.3       1 UNK         0.0863 
      6 C6         32.3341  -45.5436  -56.4732 C.3       11 UNK        -0.0953 
      7 S7         33.1331  -45.6588  -54.8363 S.3       11 UNK        -0.2369 
      8 C8         33.4532  -43.9090  -54.4645 C.3       11 UNK         0.0226 
      9 C9         32.3208  -43.3003  -53.6539 C.ar      11 UNK        -0.0699 
     10 C10        32.2911  -43.4723  -52.2681 C.ar      11 UNK        -0.0804 
     11 C11        31.2581  -42.9224  -51.5025 C.ar      11 UNK        -0.0871 
     12 C12        30.2571  -42.1792  -52.1365 C.ar      11 UNK        -0.1008 
     13 C13        30.2867  -41.9838  -53.5211 C.ar      11 UNK        -0.0735 
     14 C14        31.3185  -42.5515  -54.2756 C.ar      11 UNK        -0.0945 
     15 C15        29.2327  -41.1167  -54.1962 C.3       11 UNK         0.0169 
     16 S16        27.6197  -41.9464  -54.3637 S.3       11 UNK        -0.2669 
     17 C17        27.9821  -43.3785  -55.4358 C.3       11 UNK        -0.0850 
     18 CA         27.6266  -43.1576  -56.9399 C.3       10 UNK         0.0855 
     19 C          28.8684  -42.7920  -57.8133 C.2       10 UNK         0.5543 
     20 N          29.0150  -43.3226  -59.0202 N.am      10 UNK        -0.7343 
     21 O          29.7011  -41.9863  -57.4113 O.2       10 UNK        -0.5027 
     22 N          26.7792  -44.2266  -57.5078 N.am      10 UNK        -0.4495 
     23 C          27.0662  -45.5346  -57.5336 C.2       10 UNK         0.4903 
     24 O          28.0149  -46.0385  -56.9302 O.2       10 UNK        -0.4860 
     25 CA         26.1508  -46.4199  -58.3933 C.3       9 UNK         0.0227 
     26 CB         26.1234  -45.9415  -59.8626 C.3       9 UNK        -0.1964 
     27 N          26.6149  -47.8053  -58.3176 N.am      9 UNK        -0.4231 
     28 C          25.9636  -48.8922  -58.7451 C.2       9 UNK         0.5014 
     29 O          24.8484  -48.8612  -59.2676 O.2       9 UNK        -0.5270 
     30 CA         26.6502  -50.2558  -58.5399 C.3       8 UNK         0.0284 
     31 CB         27.8149  -50.4650  -59.5298 C.3       8 UNK        -0.1977 
     32 N          27.0432  -50.4976  -57.1449 N.am      8 UNK        -0.4342 
     33 C          28.0113  -49.8957  -56.4445 C.2       8 UNK         0.5039 
     34 O          28.8279  -49.1043  -56.9218 O.2       8 UNK        -0.5547 
     35 CA         28.0378  -50.1752  -54.9378 C.3       7 UNK         0.0281 
     36 CB         29.3349  -50.8758  -54.5137 C.3       7 UNK        -0.1963 
     37 N          27.9094  -48.9002  -54.2370 N.am      7 UNK        -0.4444 
     38 C          26.7488  -48.2406  -54.1095 C.2       7 UNK         0.5104 
     39 O          25.6625  -48.7225  -54.4364 O.2       7 UNK        -0.5100 
     40 CA         26.7926  -46.7937  -53.5788 C.3       6 UNK         0.0396 
     41 CB         25.5975  -46.4631  -52.6600 C.3       6 UNK        -0.1801 
     42 N          28.0651  -46.4002  -52.9579 N.am      6 UNK        -0.4747 
     43 C          28.5986  -46.9026  -51.8355 C.2       6 UNK         0.5012 
     44 O          28.0718  -47.7829  -51.1515 O.2       6 UNK        -0.5003 
     45 CA         29.9638  -46.3339  -51.4053 C.3       5 UNK         0.0782 
     46 C46        29.8092  -45.5335  -50.0867 C.3       11 UNK        -0.0868 
     47 S47        31.3827  -44.8425  -49.4771 S.3       11 UNK        -0.2515 
     48 C48        31.2446  -43.0980  -49.9886 C.3       11 UNK         0.0199 
     49 N          30.9558  -47.4071  -51.2932 N.am      5 UNK        -0.4607 
     50 C          31.3570  -48.2019  -52.2925 C.2       4 UNK         0.5031 
     51 O          30.9407  -48.1248  -53.4520 O.2       4 UNK        -0.5119 
     52 CA         32.3852  -49.2747  -51.9202 C.3       4 UNK         0.0263 
     53 CB         31.7114  -50.4746  -51.2258 C.3       4 UNK        -0.1967 
     54 N          33.0872  -49.7055  -53.1261 N.am      4 UNK        -0.4237 
     55 C          34.2522  -50.3642  -53.1533 C.2       3 UNK         0.4908 
     56 O          34.8516  -50.7118  -52.1341 O.2       3 UNK        -0.5102 
     57 CA         34.8939  -50.6539  -54.5262 C.3       3 UNK         0.0241 
     58 CB         35.5256  -52.0615  -54.5928 C.3       3 UNK        -0.1971 
     59 N          34.0245  -50.4063  -55.6837 N.am      3 UNK        -0.4139 
     60 C          32.9345  -51.0816  -56.0741 C.2       2 UNK         0.5016 
     61 O          32.4615  -52.0436  -55.4679 O.2       2 UNK        -0.5319 
     62 CA         32.2519  -50.5568  -57.3541 C.3       2 UNK         0.0286 
     63 CB         31.1814  -51.5175  -57.9019 C.3       2 UNK        -0.1963 
     64 N          31.6532  -49.2340  -57.1498 N.am      2 UNK        -0.4790 
     65 C          32.3379  -48.0875  -57.0469 C.2       1 UNK         0.5024 
     66 O          33.5634  -48.0239  -57.1699 O.2       1 UNK        -0.4888 
     67 H67        32.8759  -46.1121  -59.2658 H         1 UNK         0.0892 
     68 H68        32.4032  -47.6564  -59.9869 H         1 UNK         0.0892 
     69 H69        32.1215  -46.1463  -60.8460 H         1 UNK         0.0892 
     70 H70        29.5883  -46.5036  -57.5756 H         1 UNK         0.3107 
     71 H71        30.8753  -47.0208  -55.9564 H         1 UNK         0.0773 
     72 H72        31.6760  -44.6732  -56.4657 H         1 UNK         0.0680 
     73 H73        33.1028  -45.3372  -57.2170 H         1 UNK         0.0680 
     74 H74        33.6162  -43.3515  -55.3882 H         1 UNK         0.0650 
     75 H75        34.3838  -43.8376  -53.8997 H         1 UNK         0.0650 
     76 H76        33.0722  -44.0431  -51.7841 H         1 UNK         0.1397 
     77 H77        29.4611  -41.7350  -51.5542 H         1 UNK         0.1363 
     78 H78        31.3477  -42.4008  -55.3462 H         1 UNK         0.1355 
     79 H79        29.0914  -40.2100  -53.6061 H         1 UNK         0.0707 
     80 H80        29.5750  -40.7780  -55.1735 H         1 UNK         0.0707 
     81 H81        29.0094  -43.7211  -55.3067 H         1 UNK         0.1034 
     82 H82        27.3701  -44.1777  -55.0271 H         1 UNK         0.1034 
     83 H83        26.9913  -42.2737  -57.0054 H         1 UNK         0.0482 
     84 H84        28.3682  -44.0121  -59.3660 H         1 UNK         0.3460 
     85 H85        29.8153  -43.0632  -59.5735 H         1 UNK         0.3460 
     86 H86        25.9711  -43.9015  -58.0192 H         1 UNK         0.2989 
     87 H87        25.1453  -46.3680  -57.9718 H         1 UNK         0.0559 
     88 H88        25.7750  -44.9121  -59.9488 H         1 UNK         0.0848 
     89 H89        25.4507  -46.5458  -60.4705 H         1 UNK         0.0848 
     90 H90        27.1125  -45.9929  -60.3185 H         1 UNK         0.0848 
     91 H91        27.5109  -47.9341  -57.8486 H         1 UNK         0.3144 
     92 H92        25.9022  -51.0182  -58.7640 H         1 UNK         0.0727 
     93 H93        28.2738  -51.4448  -59.3992 H         1 UNK         0.0790 
     94 H94        28.5946  -49.7105  -59.4198 H         1 UNK         0.0790 
     95 H95        27.4596  -50.4076  -60.5593 H         1 UNK         0.0790 
     96 H96        26.4117  -51.1003  -56.6343 H         1 UNK         0.3215 
     97 H97        27.2000  -50.8204  -54.6642 H         1 UNK         0.0863 
     98 H98        29.3514  -51.0430  -53.4381 H         1 UNK         0.0808 
     99 H99        30.2179  -50.2952  -54.7792 H         1 UNK         0.0808 
    100 H100       29.4291  -51.8508  -54.9925 H         1 UNK         0.0808 
    101 H101       28.7721  -48.4284  -53.9933 H         1 UNK         0.3118 
    102 H102       26.6866  -46.1773  -54.4687 H         1 UNK         0.0546 
    103 H103       24.6507  -46.6023  -53.1832 H         1 UNK         0.0828 
    104 H104       25.6291  -45.4263  -52.3255 H         1 UNK         0.0828 
    105 H105       25.5736  -47.1019  -51.7769 H         1 UNK         0.0828 
    106 H106       28.5940  -45.7065  -53.4678 H         1 UNK         0.3005 
    107 H107       30.3193  -45.6521  -52.1812 H         1 UNK         0.1257 
    108 H108       29.4058  -46.1712  -49.2974 H         1 UNK         0.0775 
    109 H109       29.0888  -44.7230  -50.2144 H         1 UNK         0.0775 
    110 H110       30.3424  -42.6683  -49.5504 H         1 UNK         0.0840 
    111 H111       32.0832  -42.5427  -49.5664 H         1 UNK         0.0840 
    112 H112       31.3390  -47.5479  -50.3702 H         1 UNK         0.2987 
    113 H113       33.1094  -48.8219  -51.2394 H         1 UNK         0.0785 
    114 H114       32.4502  -51.1780  -50.8417 H         1 UNK         0.0798 
    115 H115       31.0612  -51.0202  -51.9081 H         1 UNK         0.0798 
    116 H116       31.1039  -50.1549  -50.3783 H         1 UNK         0.0798 
    117 H117       32.6485  -49.4139  -53.9904 H         1 UNK         0.3079 
    118 H118       35.7072  -49.9328  -54.6197 H         1 UNK         0.0794 
    119 H119       36.2981  -52.1816  -53.8322 H         1 UNK         0.0786 
    120 H120       35.9965  -52.2407  -55.5593 H         1 UNK         0.0786 
    121 H121       34.7866  -52.8460  -54.4278 H         1 UNK         0.0786 
    122 H122       34.2537  -49.5789  -56.2294 H         1 UNK         0.3032 
    123 H123       33.0284  -50.4711  -58.1180 H         1 UNK         0.1094 
    124 H124       30.7755  -51.1566  -58.8467 H         1 UNK         0.0794 
    125 H125       31.6023  -52.5066  -58.0869 H         1 UNK         0.0794 
    126 H126       30.3515  -51.6419  -57.2079 H         1 UNK         0.0794 
    127 H127       30.6363  -49.1976  -57.0605 H         1 UNK         0.3016 
@<TRIPOS>BOND
     1    1    2 1    
     2    1   67 1    
     3    1   68 1    
     4    1   69 1    
     5    2    3 2    
     6    2    4 am   BACKBONE|DICT|INTERRES
     7    4    5 1    
     8    4   70 1    
     9    5    6 1    
    10    5   65 1    
    11    5   71 1    
    12    6    7 1    
    13    6   72 1    
    14    6   73 1    
    15    7    8 1    
    16    8    9 1    
    17    8   74 1    
    18    8   75 1    
    19    9   10 ar   
    20    9   14 ar   
    21   10   11 ar   
    22   10   76 1    
    23   11   12 ar   
    24   11   48 1    
    25   12   13 ar   
    26   12   77 1    
    27   13   14 ar   
    28   13   15 1    
    29   14   78 1    
    30   15   16 1    
    31   15   79 1    
    32   15   80 1    
    33   16   17 1    
    34   17   18 1    
    35   17   81 1    
    36   17   82 1    
    37   18   19 1    
    38   18   22 1    
    39   18   83 1    
    40   19   20 am   BACKBONE|DICT|INTERRES
    41   19   21 2    
    42   20   84 1    
    43   20   85 1    
    44   22   23 am   BACKBONE|DICT|INTERRES
    45   22   86 1    
    46   23   24 2    
    47   23   25 1    
    48   25   26 1    
    49   25   27 1    
    50   25   87 1    
    51   26   88 1    
    52   26   89 1    
    53   26   90 1    
    54   27   28 am   BACKBONE|DICT|INTERRES
    55   27   91 1    
    56   28   29 2    
    57   28   30 1    
    58   30   31 1    
    59   30   32 1    
    60   30   92 1    
    61   31   93 1    
    62   31   94 1    
    63   31   95 1    
    64   32   33 am   BACKBONE|DICT|INTERRES
    65   32   96 1    
    66   33   34 2    
    67   33   35 1    
    68   35   36 1    
    69   35   37 1    
    70   35   97 1    
    71   36   98 1    
    72   36   99 1    
    73   36  100 1    
    74   37   38 am   BACKBONE|DICT|INTERRES
    75   37  101 1    
    76   38   39 2    
    77   38   40 1    
    78   40   41 1    
    79   40   42 1    
    80   40  102 1    
    81   41  103 1    
    82   41  104 1    
    83   41  105 1    
    84   42   43 am   BACKBONE|DICT|INTERRES
    85   42  106 1    
    86   43   44 2    
    87   43   45 1    
    88   45   46 1    
    89   45   49 1    
    90   45  107 1    
    91   46   47 1    
    92   46  108 1    
    93   46  109 1    
    94   47   48 1    
    95   48  110 1    
    96   48  111 1    
    97   49   50 am   BACKBONE|DICT|INTERRES
    98   49  112 1    
    99   50   51 2    
   100   50   52 1    
   101   52   53 1    
   102   52   54 1    
   103   52  113 1    
   104   53  114 1    
   105   53  115 1    
   106   53  116 1    
   107   54   55 am   BACKBONE|DICT|INTERRES
   108   54  117 1    
   109   55   56 2    
   110   55   57 1    
   111   57   58 1    
   112   57   59 1    
   113   57  118 1    
   114   58  119 1    
   115   58  120 1    
   116   58  121 1    
   117   59   60 am   BACKBONE|DICT|INTERRES
   118   59  122 1    
   119   60   61 2    
   120   60   62 1    
   121   62   63 1    
   122   62   64 1    
   123   62  123 1    
   124   63  124 1    
   125   63  125 1    
   126   63  126 1    
   127   64   65 am   BACKBONE|DICT|INTERRES
   128   64  127 1    
   129   65   66 2    
@<TRIPOS>SUBSTRUCTURE
     1 UNK         1 GROUP             0       ****    0 ROOT    
