@<TRIPOS>MOLECULE
3R134
127   129    1
SMALL
USER_CHARGES


@<TRIPOS>ATOM
      1 CA         29.6257  -42.6371  -51.2878 C.3       0 UNK        -0.1968 
      2 C          30.8038  -43.4140  -50.7201 C.2       0 UNK         0.4852 
      3 O          30.9042  -43.5681  -49.5014 O.2       0 UNK        -0.5359 
      4 N          31.7004  -43.8894  -51.5927 N.am      1 UNK        -0.4300 
      5 CA         32.8804  -44.6806  -51.2282 C.3       1 UNK         0.0863 
      6 C6         34.0039  -44.5696  -52.2914 C.3       11 UNK        -0.0953 
      7 S7         34.5567  -42.8453  -52.5190 S.3       11 UNK        -0.2369 
      8 C8         34.9818  -42.8062  -54.2938 C.3       11 UNK         0.0226 
      9 C9         33.8274  -43.1718  -55.2238 C.ar      11 UNK        -0.0699 
     10 C10        34.0677  -43.9974  -56.3269 C.ar      11 UNK        -0.0804 
     11 C11        33.0312  -44.3440  -57.1986 C.ar      11 UNK        -0.0871 
     12 C12        31.7409  -43.8654  -56.9567 C.ar      11 UNK        -0.1008 
     13 C13        31.4834  -43.0525  -55.8495 C.ar      11 UNK        -0.0735 
     14 C14        32.5319  -42.6917  -54.9991 C.ar      11 UNK        -0.0945 
     15 C15        30.0674  -42.5864  -55.5609 C.3       11 UNK         0.0169 
     16 S16        29.1136  -43.9202  -54.7740 S.3       11 UNK        -0.2669 
     17 C17        27.5612  -43.0533  -54.3521 C.3       11 UNK        -0.0850 
     18 CA         26.4317  -43.2113  -55.4048 C.3       10 UNK         0.0855 
     19 C          26.6141  -42.2567  -56.6211 C.2       10 UNK         0.5543 
     20 N          26.6960  -42.7510  -57.8505 N.am      10 UNK        -0.7343 
     21 O          26.6715  -41.0425  -56.4441 O.2       10 UNK        -0.5027 
     22 N          26.2161  -44.6229  -55.7570 N.am      10 UNK        -0.4495 
     23 C          25.0527  -45.1517  -56.1525 C.2       10 UNK         0.4903 
     24 O          23.9991  -44.5166  -56.2090 O.2       10 UNK        -0.4860 
     25 CA         25.0537  -46.6310  -56.5813 C.3       9 UNK         0.0227 
     26 CB         24.8771  -46.7348  -58.1042 C.3       9 UNK        -0.1964 
     27 N          26.2538  -47.3781  -56.1861 N.am      9 UNK        -0.4231 
     28 C          26.5417  -47.7629  -54.9346 C.2       9 UNK         0.5014 
     29 O          25.8372  -47.5051  -53.9566 O.2       9 UNK        -0.5270 
     30 CA         27.8309  -48.5879  -54.7750 C.3       8 UNK         0.0284 
     31 CB         28.1718  -48.9320  -53.3094 C.3       8 UNK        -0.1977 
     32 N          27.8024  -49.7883  -55.6186 N.am      8 UNK        -0.4342 
     33 C          26.9774  -50.8445  -55.5390 C.2       8 UNK         0.5039 
     34 O          26.1175  -50.9894  -54.6691 O.2       8 UNK        -0.5547 
     35 CA         27.1705  -51.9341  -56.6159 C.3       7 UNK         0.0281 
     36 CB         25.9650  -52.8914  -56.7392 C.3       7 UNK        -0.1963 
     37 N          27.5577  -51.3820  -57.9219 N.am      7 UNK        -0.4444 
     38 C          26.8236  -50.5902  -58.7210 C.2       7 UNK         0.5104 
     39 O          25.6497  -50.2890  -58.5066 O.2       7 UNK        -0.5100 
     40 CA         27.5642  -50.0051  -59.9436 C.3       6 UNK         0.0396 
     41 CB         26.7809  -48.8863  -60.6601 C.3       6 UNK        -0.1801 
     42 N          28.9228  -49.5570  -59.6072 N.am      6 UNK        -0.4747 
     43 C          29.2644  -48.6654  -58.6632 C.2       6 UNK         0.5012 
     44 O          28.4535  -48.0140  -58.0000 O.2       6 UNK        -0.5003 
     45 CA         30.7635  -48.5755  -58.3231 C.3       5 UNK         0.0782 
     46 C46        31.2206  -47.1082  -58.1487 C.3       11 UNK        -0.0868 
     47 S47        33.0356  -46.9895  -58.0114 S.3       11 UNK        -0.2515 
     48 C48        33.3109  -45.2335  -58.4006 C.3       11 UNK         0.0199 
     49 N          31.0489  -49.3663  -57.1214 N.am      5 UNK        -0.4607 
     50 C          30.9316  -50.6923  -56.9859 C.2       4 UNK         0.5031 
     51 O          30.5437  -51.4325  -57.8913 O.2       4 UNK        -0.5119 
     52 CA         31.2741  -51.2866  -55.6035 C.3       4 UNK         0.0263 
     53 CB         31.3626  -52.8242  -55.6297 C.3       4 UNK        -0.1967 
     54 N          32.5143  -50.7503  -55.0329 N.am      4 UNK        -0.4237 
     55 C          32.6412  -49.5572  -54.4395 C.2       3 UNK         0.4908 
     56 O          31.7315  -48.7279  -54.3751 O.2       3 UNK        -0.5102 
     57 CA         34.0255  -49.2161  -53.8647 C.3       3 UNK         0.0241 
     58 CB         34.7699  -48.2505  -54.8024 C.3       3 UNK        -0.1971 
     59 N          33.9194  -48.6076  -52.5386 N.am      3 UNK        -0.4139 
     60 C          33.4403  -49.2109  -51.4406 C.2       2 UNK         0.5016 
     61 O          33.1190  -50.3997  -51.4000 O.2       2 UNK        -0.5319 
     62 CA         33.3122  -48.3576  -50.1615 C.3       2 UNK         0.0286 
     63 CB         34.3634  -48.7825  -49.1221 C.3       2 UNK        -0.1963 
     64 N          33.4330  -46.9129  -50.3947 N.am      2 UNK        -0.4790 
     65 C          32.4997  -46.1562  -50.9893 C.2       1 UNK         0.5024 
     66 O          31.4117  -46.5952  -51.3689 O.2       1 UNK        -0.4888 
     67 H67        29.4034  -41.7738  -50.6612 H         1 UNK         0.0892 
     68 H68        29.8319  -42.2743  -52.2941 H         1 UNK         0.0892 
     69 H69        28.7409  -43.2718  -51.3229 H         1 UNK         0.0892 
     70 H70        31.5394  -43.7816  -52.5836 H         1 UNK         0.3107 
     71 H71        33.2729  -44.2933  -50.2851 H         1 UNK         0.0773 
     72 H72        33.6662  -44.9847  -53.2425 H         1 UNK         0.0680 
     73 H73        34.8803  -45.1508  -51.9998 H         1 UNK         0.0680 
     74 H74        35.3280  -41.8036  -54.5470 H         1 UNK         0.0650 
     75 H75        35.8285  -43.4757  -54.4534 H         1 UNK         0.0650 
     76 H76        35.0655  -44.3727  -56.5101 H         1 UNK         0.1397 
     77 H77        30.9303  -44.1407  -57.6175 H         1 UNK         0.1363 
     78 H78        32.3366  -42.0503  -54.1509 H         1 UNK         0.1355 
     79 H79        29.5825  -42.2839  -56.4899 H         1 UNK         0.0707 
     80 H80        30.0786  -41.7083  -54.9133 H         1 UNK         0.0707 
     81 H81        27.7618  -42.0014  -54.1392 H         1 UNK         0.1034 
     82 H82        27.2129  -43.4705  -53.4062 H         1 UNK         0.1034 
     83 H83        25.5190  -42.8602  -54.9193 H         1 UNK         0.0482 
     84 H84        26.6480  -43.7445  -58.0039 H         1 UNK         0.3460 
     85 H85        26.8067  -42.1221  -58.6301 H         1 UNK         0.3460 
     86 H86        27.0402  -45.2058  -55.7459 H         1 UNK         0.2989 
     87 H87        24.1915  -47.1048  -56.1077 H         1 UNK         0.0559 
     88 H88        23.9808  -46.2073  -58.4337 H         1 UNK         0.0848 
     89 H89        24.7693  -47.7719  -58.4200 H         1 UNK         0.0848 
     90 H90        25.7241  -46.3023  -58.6376 H         1 UNK         0.0848 
     91 H91        26.9095  -47.6225  -56.9254 H         1 UNK         0.3144 
     92 H92        28.6440  -47.9656  -55.1537 H         1 UNK         0.0727 
     93 H93        29.1115  -49.4802  -53.2404 H         1 UNK         0.0790 
     94 H94        27.3942  -49.5321  -52.8364 H         1 UNK         0.0790 
     95 H95        28.2865  -48.0235  -52.7167 H         1 UNK         0.0790 
     96 H96        28.3936  -49.7358  -56.4355 H         1 UNK         0.3215 
     97 H97        28.0199  -52.5313  -56.2813 H         1 UNK         0.0863 
     98 H98        26.1330  -53.6458  -57.5076 H         1 UNK         0.0808 
     99 H99        25.0454  -52.3596  -56.9845 H         1 UNK         0.0808 
    100 H100       25.7901  -53.4194  -55.8011 H         1 UNK         0.0808 
    101 H101       28.5245  -51.5463  -58.1901 H         1 UNK         0.3118 
    102 H102       27.6749  -50.8300  -60.6490 H         1 UNK         0.0546 
    103 H103       26.6550  -48.0103  -60.0265 H         1 UNK         0.0828 
    104 H104       25.7861  -49.2252  -60.9519 H         1 UNK         0.0828 
    105 H105       27.2918  -48.5676  -61.5684 H         1 UNK         0.0828 
    106 H106       29.6664  -50.0820  -60.0488 H         1 UNK         0.3005 
    107 H107       31.3275  -49.0090  -59.1522 H         1 UNK         0.1257 
    108 H108       30.8971  -46.5060  -58.9999 H         1 UNK         0.0775 
    109 H109       30.7684  -46.6617  -57.2605 H         1 UNK         0.0775 
    110 H110       34.3460  -45.1068  -58.7215 H         1 UNK         0.0840 
    111 H111       32.6961  -44.9337  -59.2505 H         1 UNK         0.0840 
    112 H112       31.3428  -48.8408  -56.3035 H         1 UNK         0.2987 
    113 H113       30.4507  -51.0195  -54.9376 H         1 UNK         0.0785 
    114 H114       31.5568  -53.2276  -54.6356 H         1 UNK         0.0798 
    115 H115       32.1550  -53.1708  -56.2943 H         1 UNK         0.0798 
    116 H116       30.4292  -53.2688  -55.9769 H         1 UNK         0.0798 
    117 H117       33.3242  -51.3518  -55.0861 H         1 UNK         0.3079 
    118 H118       34.6103  -50.1332  -53.7671 H         1 UNK         0.0794 
    119 H119       34.2321  -47.3083  -54.9223 H         1 UNK         0.0786 
    120 H120       34.8865  -48.6836  -55.7969 H         1 UNK         0.0786 
    121 H121       35.7688  -48.0226  -54.4300 H         1 UNK         0.0786 
    122 H122       34.1344  -47.6253  -52.4747 H         1 UNK         0.3032 
    123 H123       32.3209  -48.5558  -49.7468 H         1 UNK         0.1094 
    124 H124       35.3790  -48.6056  -49.4783 H         1 UNK         0.0794 
    125 H125       34.2358  -48.2423  -48.1838 H         1 UNK         0.0794 
    126 H126       34.2797  -49.8461  -48.8936 H         1 UNK         0.0794 
    127 H127       34.2979  -46.4809  -50.0996 H         1 UNK         0.3016 
@<TRIPOS>BOND
     1    1    2 1    
     2    1   67 1    
     3    1   68 1    
     4    1   69 1    
     5    2    3 2    
     6    2    4 am   BACKBONE|DICT|INTERRES
     7    4    5 1    
     8    4   70 1    
     9    5    6 1    
    10    5   65 1    
    11    5   71 1    
    12    6    7 1    
    13    6   72 1    
    14    6   73 1    
    15    7    8 1    
    16    8    9 1    
    17    8   74 1    
    18    8   75 1    
    19    9   10 ar   
    20    9   14 ar   
    21   10   11 ar   
    22   10   76 1    
    23   11   12 ar   
    24   11   48 1    
    25   12   13 ar   
    26   12   77 1    
    27   13   14 ar   
    28   13   15 1    
    29   14   78 1    
    30   15   16 1    
    31   15   79 1    
    32   15   80 1    
    33   16   17 1    
    34   17   18 1    
    35   17   81 1    
    36   17   82 1    
    37   18   19 1    
    38   18   22 1    
    39   18   83 1    
    40   19   20 am   BACKBONE|DICT|INTERRES
    41   19   21 2    
    42   20   84 1    
    43   20   85 1    
    44   22   23 am   BACKBONE|DICT|INTERRES
    45   22   86 1    
    46   23   24 2    
    47   23   25 1    
    48   25   26 1    
    49   25   27 1    
    50   25   87 1    
    51   26   88 1    
    52   26   89 1    
    53   26   90 1    
    54   27   28 am   BACKBONE|DICT|INTERRES
    55   27   91 1    
    56   28   29 2    
    57   28   30 1    
    58   30   31 1    
    59   30   32 1    
    60   30   92 1    
    61   31   93 1    
    62   31   94 1    
    63   31   95 1    
    64   32   33 am   BACKBONE|DICT|INTERRES
    65   32   96 1    
    66   33   34 2    
    67   33   35 1    
    68   35   36 1    
    69   35   37 1    
    70   35   97 1    
    71   36   98 1    
    72   36   99 1    
    73   36  100 1    
    74   37   38 am   BACKBONE|DICT|INTERRES
    75   37  101 1    
    76   38   39 2    
    77   38   40 1    
    78   40   41 1    
    79   40   42 1    
    80   40  102 1    
    81   41  103 1    
    82   41  104 1    
    83   41  105 1    
    84   42   43 am   BACKBONE|DICT|INTERRES
    85   42  106 1    
    86   43   44 2    
    87   43   45 1    
    88   45   46 1    
    89   45   49 1    
    90   45  107 1    
    91   46   47 1    
    92   46  108 1    
    93   46  109 1    
    94   47   48 1    
    95   48  110 1    
    96   48  111 1    
    97   49   50 am   BACKBONE|DICT|INTERRES
    98   49  112 1    
    99   50   51 2    
   100   50   52 1    
   101   52   53 1    
   102   52   54 1    
   103   52  113 1    
   104   53  114 1    
   105   53  115 1    
   106   53  116 1    
   107   54   55 am   BACKBONE|DICT|INTERRES
   108   54  117 1    
   109   55   56 2    
   110   55   57 1    
   111   57   58 1    
   112   57   59 1    
   113   57  118 1    
   114   58  119 1    
   115   58  120 1    
   116   58  121 1    
   117   59   60 am   BACKBONE|DICT|INTERRES
   118   59  122 1    
   119   60   61 2    
   120   60   62 1    
   121   62   63 1    
   122   62   64 1    
   123   62  123 1    
   124   63  124 1    
   125   63  125 1    
   126   63  126 1    
   127   64   65 am   BACKBONE|DICT|INTERRES
   128   64  127 1    
   129   65   66 2    
@<TRIPOS>SUBSTRUCTURE
     1 UNK         1 GROUP             0       ****    0 ROOT    
