@<TRIPOS>MOLECULE
3R134
127   129    1
SMALL
USER_CHARGES


@<TRIPOS>ATOM
      1 CA         37.5793  -44.4099  -52.6768 C.3       0 UNK        -0.1968 
      2 C          36.2120  -44.5294  -52.0196 C.2       0 UNK         0.4852 
      3 O          36.1206  -44.4742  -50.7926 O.2       0 UNK        -0.5359 
      4 N          35.1556  -44.6943  -52.8302 N.am      1 UNK        -0.4300 
      5 CA         33.7545  -44.8471  -52.4060 C.3       1 UNK         0.0863 
      6 C6         33.2025  -43.5812  -51.6893 C.3       11 UNK        -0.0953 
      7 S7         31.4347  -43.2654  -52.0253 S.3       11 UNK        -0.2369 
      8 C8         31.5032  -42.0067  -53.3439 C.3       11 UNK         0.0226 
      9 C9         31.4368  -42.6387  -54.7271 C.ar      11 UNK        -0.0699 
     10 C10        32.5743  -43.2158  -55.2985 C.ar      11 UNK        -0.0804 
     11 C11        32.5098  -43.8366  -56.5496 C.ar      11 UNK        -0.0871 
     12 C12        31.3013  -43.8249  -57.2544 C.ar      11 UNK        -0.1008 
     13 C13        30.1647  -43.2190  -56.7113 C.ar      11 UNK        -0.0735 
     14 C14        30.2358  -42.6366  -55.4427 C.ar      11 UNK        -0.0945 
     15 C15        28.8719  -43.1791  -57.5111 C.3       11 UNK         0.0169 
     16 S16        27.7685  -44.5518  -57.0685 S.3       11 UNK        -0.2669 
     17 C17        26.6505  -43.7472  -55.8692 C.3       11 UNK        -0.0850 
     18 CA         25.8425  -44.7692  -55.0200 C.3       10 UNK         0.0855 
     19 C          24.9959  -44.0923  -53.8997 C.2       10 UNK         0.5543 
     20 N          23.8600  -44.6538  -53.5036 N.am      10 UNK        -0.7343 
     21 O          25.3851  -43.0609  -53.3569 O.2       10 UNK        -0.5027 
     22 N          25.1143  -45.7514  -55.8437 N.am      10 UNK        -0.4495 
     23 C          24.1114  -45.4937  -56.6943 C.2       10 UNK         0.4903 
     24 O          23.6133  -44.3779  -56.8554 O.2       10 UNK        -0.4860 
     25 CA         23.5863  -46.6996  -57.4996 C.3       9 UNK         0.0227 
     26 CB         22.4955  -46.3184  -58.5235 C.3       9 UNK        -0.1964 
     27 N          24.6672  -47.4577  -58.1425 N.am      9 UNK        -0.4231 
     28 C          25.5607  -47.0233  -59.0450 C.2       9 UNK         0.5014 
     29 O          25.5348  -45.8965  -59.5430 O.2       9 UNK        -0.5270 
     30 CA         26.6644  -48.0205  -59.4724 C.3       8 UNK         0.0284 
     31 CB         27.8431  -47.3231  -60.1779 C.3       8 UNK        -0.1977 
     32 N          27.1919  -48.8179  -58.3580 N.am      8 UNK        -0.4342 
     33 C          26.5739  -49.8637  -57.7880 C.2       8 UNK         0.5039 
     34 O          25.4787  -50.2821  -58.1646 O.2       8 UNK        -0.5547 
     35 CA         27.2413  -50.5255  -56.5674 C.3       7 UNK         0.0281 
     36 CB         28.0243  -51.7733  -57.0070 C.3       7 UNK        -0.1963 
     37 N          28.1283  -49.6343  -55.8159 N.am      7 UNK        -0.4444 
     38 C          27.7754  -48.4695  -55.2540 C.2       7 UNK         0.5104 
     39 O          26.6110  -48.0732  -55.1953 O.2       7 UNK        -0.5100 
     40 CA         28.9044  -47.5739  -54.7051 C.3       6 UNK         0.0396 
     41 CB         28.9098  -47.5808  -53.1699 C.3       6 UNK        -0.1801 
     42 N          30.2455  -47.9117  -55.1966 N.am      6 UNK        -0.4747 
     43 C          30.6443  -47.8521  -56.4782 C.2       6 UNK         0.5012 
     44 O          29.9010  -47.5547  -57.4140 O.2       6 UNK        -0.5003 
     45 CA         32.0947  -48.2798  -56.7623 C.3       5 UNK         0.0782 
     46 C46        33.1201  -47.1634  -56.4221 C.3       11 UNK        -0.0868 
     47 S47        33.4712  -46.1216  -57.8785 S.3       11 UNK        -0.2515 
     48 C48        33.7606  -44.4757  -57.1454 C.3       11 UNK         0.0199 
     49 N          32.3854  -49.5334  -56.0609 N.am      5 UNK        -0.4607 
     50 C          32.1675  -50.7523  -56.5753 C.2       4 UNK         0.5031 
     51 O          31.7585  -50.9465  -57.7198 O.2       4 UNK        -0.5119 
     52 CA         32.4475  -51.9688  -55.6727 C.3       4 UNK         0.0263 
     53 CB         33.8753  -52.4889  -55.9048 C.3       4 UNK        -0.1967 
     54 N          32.2584  -51.7019  -54.2453 N.am      4 UNK        -0.4237 
     55 C          31.0786  -51.4304  -53.6697 C.2       3 UNK         0.4908 
     56 O          30.0089  -51.4188  -54.2751 O.2       3 UNK        -0.5102 
     57 CA         31.0974  -51.0656  -52.1742 C.3       3 UNK         0.0241 
     58 CB         30.9336  -52.3292  -51.3146 C.3       3 UNK        -0.1971 
     59 N          32.2908  -50.3286  -51.7373 N.am      3 UNK        -0.4139 
     60 C          32.7547  -49.1970  -52.2860 C.2       2 UNK         0.5016 
     61 O          32.2588  -48.6605  -53.2823 O.2       2 UNK        -0.5319 
     62 CA         34.0252  -48.6074  -51.6521 C.3       2 UNK         0.0286 
     63 CB         35.2598  -49.4288  -52.0612 C.3       2 UNK        -0.1963 
     64 N          34.2281  -47.2236  -52.0772 N.am      2 UNK        -0.4790 
     65 C          33.5086  -46.1749  -51.6531 C.2       1 UNK         0.5024 
     66 O          32.6873  -46.2411  -50.7364 O.2       1 UNK        -0.4888 
     67 H67        37.5186  -44.4669  -53.7635 H         1 UNK         0.0892 
     68 H68        38.0395  -43.4579  -52.4134 H         1 UNK         0.0892 
     69 H69        38.2323  -45.2109  -52.3315 H         1 UNK         0.0892 
     70 H70        35.3150  -44.7384  -53.8265 H         1 UNK         0.3107 
     71 H71        33.1968  -44.9763  -53.3328 H         1 UNK         0.0773 
     72 H72        33.3497  -43.6462  -50.6097 H         1 UNK         0.0680 
     73 H73        33.7668  -42.6996  -51.9950 H         1 UNK         0.0680 
     74 H74        32.4003  -41.3936  -53.2515 H         1 UNK         0.0650 
     75 H75        30.6630  -41.3245  -53.2062 H         1 UNK         0.0650 
     76 H76        33.5107  -43.1830  -54.7608 H         1 UNK         0.1397 
     77 H77        31.2451  -44.2846  -58.2318 H         1 UNK         0.1363 
     78 H78        29.3586  -42.1730  -55.0144 H         1 UNK         0.1355 
     79 H79        29.0926  -43.2457  -58.5775 H         1 UNK         0.0707 
     80 H80        28.3651  -42.2234  -57.3689 H         1 UNK         0.0707 
     81 H81        27.2480  -43.1109  -55.2161 H         1 UNK         0.1034 
     82 H82        25.9768  -43.0813  -56.4108 H         1 UNK         0.1034 
     83 H83        26.5743  -45.3598  -54.4686 H         1 UNK         0.0482 
     84 H84        23.5375  -45.5051  -53.9350 H         1 UNK         0.3460 
     85 H85        23.3200  -44.2188  -52.7724 H         1 UNK         0.3460 
     86 H86        25.4695  -46.7014  -55.7668 H         1 UNK         0.2989 
     87 H87        23.1315  -47.3756  -56.7743 H         1 UNK         0.0559 
     88 H88        22.8645  -45.6096  -59.2656 H         1 UNK         0.0848 
     89 H89        21.6420  -45.8534  -58.0287 H         1 UNK         0.0848 
     90 H90        22.1238  -47.1954  -59.0532 H         1 UNK         0.0848 
     91 H91        24.7676  -48.4243  -57.8481 H         1 UNK         0.3144 
     92 H92        26.2072  -48.7018  -60.1928 H         1 UNK         0.0727 
     93 H93        28.6033  -48.0404  -60.4876 H         1 UNK         0.0790 
     94 H94        27.5114  -46.7977  -61.0743 H         1 UNK         0.0790 
     95 H95        28.3205  -46.5895  -59.5265 H         1 UNK         0.0790 
     96 H96        28.0690  -48.4969  -57.9591 H         1 UNK         0.3215 
     97 H97        26.4430  -50.8386  -55.8915 H         1 UNK         0.0863 
     98 H98        27.3959  -52.4439  -57.5951 H         1 UNK         0.0808 
     99 H99        28.3805  -52.3424  -56.1488 H         1 UNK         0.0808 
    100 H100       28.8881  -51.5128  -57.6202 H         1 UNK         0.0808 
    101 H101       29.0929  -49.9264  -55.7247 H         1 UNK         0.3118 
    102 H102       28.6933  -46.5555  -55.0344 H         1 UNK         0.0546 
    103 H103       29.6699  -46.9084  -52.7708 H         1 UNK         0.0828 
    104 H104       29.1020  -48.5777  -52.7759 H         1 UNK         0.0828 
    105 H105       27.9470  -47.2538  -52.7751 H         1 UNK         0.0828 
    106 H106       30.9288  -48.1854  -54.4924 H         1 UNK         0.3005 
    107 H107       32.1548  -48.4794  -57.8353 H         1 UNK         0.1257 
    108 H108       34.0716  -47.6021  -56.1173 H         1 UNK         0.0775 
    109 H109       32.7948  -46.5508  -55.5785 H         1 UNK         0.0775 
    110 H110       34.5498  -44.5626  -56.3974 H         1 UNK         0.0840 
    111 H111       34.1469  -43.8142  -57.9218 H         1 UNK         0.0840 
    112 H112       32.6435  -49.4468  -55.0840 H         1 UNK         0.2987 
    113 H113       31.7460  -52.7552  -55.9604 H         1 UNK         0.0785 
    114 H114       34.0385  -52.7230  -56.9579 H         1 UNK         0.0798 
    115 H115       34.0625  -53.4024  -55.3399 H         1 UNK         0.0798 
    116 H116       34.6262  -51.7529  -55.6147 H         1 UNK         0.0798 
    117 H117       33.0861  -51.6912  -53.6680 H         1 UNK         0.3079 
    118 H118       30.2374  -50.4213  -51.9889 H         1 UNK         0.0794 
    119 H119       30.8266  -52.0810  -50.2584 H         1 UNK         0.0786 
    120 H120       31.7854  -53.0026  -51.4179 H         1 UNK         0.0786 
    121 H121       30.0411  -52.8859  -51.6050 H         1 UNK         0.0786 
    122 H122       32.7744  -50.7051  -50.9342 H         1 UNK         0.3032 
    123 H123       33.9178  -48.6301  -50.5651 H         1 UNK         0.1094 
    124 H124       35.3888  -49.4549  -53.1443 H         1 UNK         0.0794 
    125 H125       36.1707  -49.0167  -51.6261 H         1 UNK         0.0794 
    126 H126       35.1817  -50.4610  -51.7174 H         1 UNK         0.0794 
    127 H127       34.8692  -47.0800  -52.8426 H         1 UNK         0.3016 
@<TRIPOS>BOND
     1    1    2 1    
     2    1   67 1    
     3    1   68 1    
     4    1   69 1    
     5    2    3 2    
     6    2    4 am   BACKBONE|DICT|INTERRES
     7    4    5 1    
     8    4   70 1    
     9    5    6 1    
    10    5   65 1    
    11    5   71 1    
    12    6    7 1    
    13    6   72 1    
    14    6   73 1    
    15    7    8 1    
    16    8    9 1    
    17    8   74 1    
    18    8   75 1    
    19    9   10 ar   
    20    9   14 ar   
    21   10   11 ar   
    22   10   76 1    
    23   11   12 ar   
    24   11   48 1    
    25   12   13 ar   
    26   12   77 1    
    27   13   14 ar   
    28   13   15 1    
    29   14   78 1    
    30   15   16 1    
    31   15   79 1    
    32   15   80 1    
    33   16   17 1    
    34   17   18 1    
    35   17   81 1    
    36   17   82 1    
    37   18   19 1    
    38   18   22 1    
    39   18   83 1    
    40   19   20 am   BACKBONE|DICT|INTERRES
    41   19   21 2    
    42   20   84 1    
    43   20   85 1    
    44   22   23 am   BACKBONE|DICT|INTERRES
    45   22   86 1    
    46   23   24 2    
    47   23   25 1    
    48   25   26 1    
    49   25   27 1    
    50   25   87 1    
    51   26   88 1    
    52   26   89 1    
    53   26   90 1    
    54   27   28 am   BACKBONE|DICT|INTERRES
    55   27   91 1    
    56   28   29 2    
    57   28   30 1    
    58   30   31 1    
    59   30   32 1    
    60   30   92 1    
    61   31   93 1    
    62   31   94 1    
    63   31   95 1    
    64   32   33 am   BACKBONE|DICT|INTERRES
    65   32   96 1    
    66   33   34 2    
    67   33   35 1    
    68   35   36 1    
    69   35   37 1    
    70   35   97 1    
    71   36   98 1    
    72   36   99 1    
    73   36  100 1    
    74   37   38 am   BACKBONE|DICT|INTERRES
    75   37  101 1    
    76   38   39 2    
    77   38   40 1    
    78   40   41 1    
    79   40   42 1    
    80   40  102 1    
    81   41  103 1    
    82   41  104 1    
    83   41  105 1    
    84   42   43 am   BACKBONE|DICT|INTERRES
    85   42  106 1    
    86   43   44 2    
    87   43   45 1    
    88   45   46 1    
    89   45   49 1    
    90   45  107 1    
    91   46   47 1    
    92   46  108 1    
    93   46  109 1    
    94   47   48 1    
    95   48  110 1    
    96   48  111 1    
    97   49   50 am   BACKBONE|DICT|INTERRES
    98   49  112 1    
    99   50   51 2    
   100   50   52 1    
   101   52   53 1    
   102   52   54 1    
   103   52  113 1    
   104   53  114 1    
   105   53  115 1    
   106   53  116 1    
   107   54   55 am   BACKBONE|DICT|INTERRES
   108   54  117 1    
   109   55   56 2    
   110   55   57 1    
   111   57   58 1    
   112   57   59 1    
   113   57  118 1    
   114   58  119 1    
   115   58  120 1    
   116   58  121 1    
   117   59   60 am   BACKBONE|DICT|INTERRES
   118   59  122 1    
   119   60   61 2    
   120   60   62 1    
   121   62   63 1    
   122   62   64 1    
   123   62  123 1    
   124   63  124 1    
   125   63  125 1    
   126   63  126 1    
   127   64   65 am   BACKBONE|DICT|INTERRES
   128   64  127 1    
   129   65   66 2    
@<TRIPOS>SUBSTRUCTURE
     1 UNK         1 GROUP             0       ****    0 ROOT    
