@<TRIPOS>MOLECULE
3R134
127   129    1
SMALL
USER_CHARGES


@<TRIPOS>ATOM
      1 CA         37.1016  -45.2698  -47.2504 C.3       0 UNK        -0.1968 
      2 C          36.6991  -45.1884  -48.7158 C.2       0 UNK         0.4852 
      3 O          37.5346  -45.4174  -49.5921 O.2       0 UNK        -0.5359 
      4 N          35.4298  -44.8568  -48.9872 N.am      1 UNK        -0.4300 
      5 CA         34.8481  -44.7982  -50.3312 C.3       1 UNK         0.0863 
      6 C6         33.5300  -43.9838  -50.3255 C.3       11 UNK        -0.0953 
      7 S7         33.1239  -43.2943  -51.9632 S.3       11 UNK        -0.2369 
      8 C8         31.7435  -44.3778  -52.4310 C.3       11 UNK         0.0226 
      9 C9         31.3216  -44.1718  -53.8763 C.ar      11 UNK        -0.0699 
     10 C10        32.1536  -44.5988  -54.9128 C.ar      11 UNK        -0.0804 
     11 C11        31.7465  -44.4966  -56.2456 C.ar      11 UNK        -0.0871 
     12 C12        30.4884  -43.9578  -56.5358 C.ar      11 UNK        -0.1008 
     13 C13        29.6359  -43.5368  -55.5071 C.ar      11 UNK        -0.0735 
     14 C14        30.0734  -43.6236  -54.1802 C.ar      11 UNK        -0.0945 
     15 C15        28.2398  -43.0085  -55.8288 C.3       11 UNK         0.0169 
     16 S16        26.9536  -43.8284  -54.8260 S.3       11 UNK        -0.2669 
     17 C17        25.4111  -43.3465  -55.6744 C.3       11 UNK        -0.0850 
     18 CA         24.7016  -44.5742  -56.3199 C.3       10 UNK         0.0855 
     19 C          23.2322  -44.2802  -56.7540 C.2       10 UNK         0.5543 
     20 N          22.7080  -44.9316  -57.7859 N.am      10 UNK        -0.7343 
     21 O          22.5427  -43.4770  -56.1299 O.2       10 UNK        -0.5027 
     22 N          25.5286  -45.2351  -57.3457 N.am      10 UNK        -0.4495 
     23 C          25.8808  -44.7072  -58.5262 C.2       10 UNK         0.4903 
     24 O          25.5470  -43.5832  -58.9025 O.2       10 UNK        -0.4860 
     25 CA         26.7648  -45.5552  -59.4538 C.3       9 UNK         0.0227 
     26 CB         28.2255  -45.0905  -59.3623 C.3       9 UNK        -0.1964 
     27 N          26.7147  -46.9944  -59.1931 N.am      9 UNK        -0.4231 
     28 C          25.6903  -47.8016  -59.4984 C.2       9 UNK         0.5014 
     29 O          24.6133  -47.4020  -59.9427 O.2       9 UNK        -0.5270 
     30 CA         25.9111  -49.3074  -59.2907 C.3       8 UNK         0.0284 
     31 CB         26.8432  -49.8712  -60.3770 C.3       8 UNK        -0.1977 
     32 N          26.4839  -49.5853  -57.9729 N.am      8 UNK        -0.4342 
     33 C          25.8269  -50.1678  -56.9606 C.2       8 UNK         0.5039 
     34 O          24.6717  -50.5878  -57.0451 O.2       8 UNK        -0.5547 
     35 CA         26.5702  -50.3166  -55.6169 C.3       7 UNK         0.0281 
     36 CB         27.1504  -51.7339  -55.4829 C.3       7 UNK        -0.1963 
     37 N          27.6445  -49.3448  -55.3967 N.am      7 UNK        -0.4444 
     38 C          27.5009  -48.0121  -55.3912 C.2       7 UNK         0.5104 
     39 O          26.4263  -47.4347  -55.5520 O.2       7 UNK        -0.5100 
     40 CA         28.7899  -47.1875  -55.2441 C.3       6 UNK         0.0396 
     41 CB         29.1197  -47.0124  -53.7549 C.3       6 UNK        -0.1801 
     42 N          29.9472  -47.7546  -55.9515 N.am      6 UNK        -0.4747 
     43 C          29.9766  -48.0627  -57.2592 C.2       6 UNK         0.5012 
     44 O          29.0053  -47.9561  -58.0087 O.2       6 UNK        -0.5003 
     45 CA         31.2742  -48.6531  -57.8300 C.3       5 UNK         0.0782 
     46 C46        32.2251  -47.5737  -58.4071 C.3       11 UNK        -0.0868 
     47 S47        33.2318  -46.6723  -57.1820 S.3       11 UNK        -0.2515 
     48 C48        32.6851  -44.9382  -57.3625 C.3       11 UNK         0.0199 
     49 N          31.9032  -49.5711  -56.8753 N.am      5 UNK        -0.4607 
     50 C          31.5020  -50.8408  -56.7142 C.2       4 UNK         0.5031 
     51 O          30.6389  -51.3789  -57.4081 O.2       4 UNK        -0.5119 
     52 CA         32.1528  -51.6489  -55.5805 C.3       4 UNK         0.0263 
     53 CB         33.5432  -52.1516  -56.0019 C.3       4 UNK        -0.1967 
     54 N          32.2588  -50.9152  -54.3184 N.am      4 UNK        -0.4237 
     55 C          31.2326  -50.4029  -53.6219 C.2       3 UNK         0.4908 
     56 O          30.0548  -50.4740  -53.9758 O.2       3 UNK        -0.5102 
     57 CA         31.5802  -49.6819  -52.3045 C.3       3 UNK         0.0241 
     58 CB         31.4165  -50.6385  -51.1129 C.3       3 UNK        -0.1971 
     59 N          32.9249  -49.0944  -52.2745 N.am      3 UNK        -0.4139 
     60 C          33.3507  -48.1296  -53.1004 C.2       2 UNK         0.5016 
     61 O          32.6494  -47.6360  -53.9838 O.2       2 UNK        -0.5319 
     62 CA         34.8044  -47.6587  -52.9230 C.3       2 UNK         0.0286 
     63 CB         35.5177  -47.5178  -54.2784 C.3       2 UNK        -0.1963 
     64 N          34.8847  -46.3838  -52.2086 N.am      2 UNK        -0.4790 
     65 C          34.6558  -46.2228  -50.8989 C.2       1 UNK         0.5024 
     66 O          34.3126  -47.1406  -50.1487 O.2       1 UNK        -0.4888 
     67 H67        36.2723  -45.0302  -46.5850 H         1 UNK         0.0892 
     68 H68        37.4474  -46.2753  -47.0121 H         1 UNK         0.0892 
     69 H69        37.9131  -44.5723  -47.0447 H         1 UNK         0.0892 
     70 H70        34.7833  -44.7143  -48.2245 H         1 UNK         0.3107 
     71 H71        35.5705  -44.2749  -50.9624 H         1 UNK         0.0773 
     72 H72        32.6967  -44.5703  -49.9330 H         1 UNK         0.0680 
     73 H73        33.6271  -43.1277  -49.6557 H         1 UNK         0.0680 
     74 H74        30.9062  -44.2012  -51.7541 H         1 UNK         0.0650 
     75 H75        32.0343  -45.4200  -52.2954 H         1 UNK         0.0650 
     76 H76        33.1156  -45.0331  -54.6779 H         1 UNK         0.1397 
     77 H77        30.1748  -43.8655  -57.5650 H         1 UNK         0.1363 
     78 H78        29.4202  -43.3038  -53.3801 H         1 UNK         0.1355 
     79 H79        28.0118  -43.1576  -56.8850 H         1 UNK         0.0707 
     80 H80        28.2094  -41.9334  -55.6477 H         1 UNK         0.0707 
     81 H81        24.7694  -42.8841  -54.9226 H         1 UNK         0.1034 
     82 H82        25.6074  -42.5709  -56.4159 H         1 UNK         0.1034 
     83 H83        24.5887  -45.3201  -55.5324 H         1 UNK         0.0482 
     84 H84        21.7549  -44.7474  -58.0564 H         1 UNK         0.3460 
     85 H85        23.2635  -45.5955  -58.3041 H         1 UNK         0.3460 
     86 H86        25.8674  -46.1553  -57.0889 H         1 UNK         0.2989 
     87 H87        26.4188  -45.3860  -60.4756 H         1 UNK         0.0559 
     88 H88        28.6342  -45.2899  -58.3723 H         1 UNK         0.0848 
     89 H89        28.3141  -44.0194  -59.5493 H         1 UNK         0.0848 
     90 H90        28.8532  -45.6017  -60.0923 H         1 UNK         0.0848 
     91 H91        27.5662  -47.4019  -58.8072 H         1 UNK         0.3144 
     92 H92        24.9414  -49.7980  -59.3980 H         1 UNK         0.0727 
     93 H93        26.9443  -50.9528  -60.2855 H         1 UNK         0.0790 
     94 H94        27.8429  -49.4379  -60.3230 H         1 UNK         0.0790 
     95 H95        26.4505  -49.6660  -61.3739 H         1 UNK         0.0790 
     96 H96        27.4217  -49.2392  -57.8011 H         1 UNK         0.3215 
     97 H97        25.8335  -50.1693  -54.8247 H         1 UNK         0.0863 
     98 H98        27.5848  -51.8931  -54.4957 H         1 UNK         0.0808 
     99 H99        27.9290  -51.9207  -56.2242 H         1 UNK         0.0808 
    100 H100       26.3767  -52.4902  -55.6218 H         1 UNK         0.0808 
    101 H101       28.5664  -49.7216  -55.1959 H         1 UNK         0.3118 
    102 H102       28.6113  -46.2041  -55.6799 H         1 UNK         0.0546 
    103 H103       28.4162  -46.3239  -53.2856 H         1 UNK         0.0828 
    104 H104       30.1199  -46.6108  -53.6064 H         1 UNK         0.0828 
    105 H105       29.0564  -47.9561  -53.2143 H         1 UNK         0.0828 
    106 H106       30.8011  -47.8524  -55.4144 H         1 UNK         0.3005 
    107 H107       30.9574  -49.2447  -58.6930 H         1 UNK         0.1257 
    108 H108       31.6705  -46.8721  -59.0327 H         1 UNK         0.0775 
    109 H109       32.9287  -48.0593  -59.0848 H         1 UNK         0.0775 
    110 H110       33.5688  -44.2995  -57.3339 H         1 UNK         0.0840 
    111 H111       32.2353  -44.7789  -58.3431 H         1 UNK         0.0840 
    112 H112       32.5964  -49.1750  -56.2554 H         1 UNK         0.2987 
    113 H113       31.5185  -52.5187  -55.3957 H         1 UNK         0.0785 
    114 H114       33.4877  -52.7153  -56.9344 H         1 UNK         0.0798 
    115 H115       33.9702  -52.8159  -55.2503 H         1 UNK         0.0798 
    116 H116       34.2419  -51.3289  -56.1599 H         1 UNK         0.0798 
    117 H117       33.1862  -50.8035  -53.9373 H         1 UNK         0.3079 
    118 H118       30.8698  -48.8645  -52.1794 H         1 UNK         0.0794 
    119 H119       32.1242  -51.4673  -51.1590 H         1 UNK         0.0786 
    120 H120       30.4133  -51.0671  -51.0918 H         1 UNK         0.0786 
    121 H121       31.5649  -50.1210  -50.1648 H         1 UNK         0.0786 
    122 H122       33.5445  -49.4158  -51.5438 H         1 UNK         0.3032 
    123 H123       35.3440  -48.4125  -52.3448 H         1 UNK         0.1094 
    124 H124       35.0985  -46.7056  -54.8724 H         1 UNK         0.0794 
    125 H125       36.5817  -47.3200  -54.1475 H         1 UNK         0.0794 
    126 H126       35.4279  -48.4316  -54.8676 H         1 UNK         0.0794 
    127 H127       35.1220  -45.5730  -52.7619 H         1 UNK         0.3016 
@<TRIPOS>BOND
     1    1    2 1    
     2    1   67 1    
     3    1   68 1    
     4    1   69 1    
     5    2    3 2    
     6    2    4 am   BACKBONE|DICT|INTERRES
     7    4    5 1    
     8    4   70 1    
     9    5    6 1    
    10    5   65 1    
    11    5   71 1    
    12    6    7 1    
    13    6   72 1    
    14    6   73 1    
    15    7    8 1    
    16    8    9 1    
    17    8   74 1    
    18    8   75 1    
    19    9   10 ar   
    20    9   14 ar   
    21   10   11 ar   
    22   10   76 1    
    23   11   12 ar   
    24   11   48 1    
    25   12   13 ar   
    26   12   77 1    
    27   13   14 ar   
    28   13   15 1    
    29   14   78 1    
    30   15   16 1    
    31   15   79 1    
    32   15   80 1    
    33   16   17 1    
    34   17   18 1    
    35   17   81 1    
    36   17   82 1    
    37   18   19 1    
    38   18   22 1    
    39   18   83 1    
    40   19   20 am   BACKBONE|DICT|INTERRES
    41   19   21 2    
    42   20   84 1    
    43   20   85 1    
    44   22   23 am   BACKBONE|DICT|INTERRES
    45   22   86 1    
    46   23   24 2    
    47   23   25 1    
    48   25   26 1    
    49   25   27 1    
    50   25   87 1    
    51   26   88 1    
    52   26   89 1    
    53   26   90 1    
    54   27   28 am   BACKBONE|DICT|INTERRES
    55   27   91 1    
    56   28   29 2    
    57   28   30 1    
    58   30   31 1    
    59   30   32 1    
    60   30   92 1    
    61   31   93 1    
    62   31   94 1    
    63   31   95 1    
    64   32   33 am   BACKBONE|DICT|INTERRES
    65   32   96 1    
    66   33   34 2    
    67   33   35 1    
    68   35   36 1    
    69   35   37 1    
    70   35   97 1    
    71   36   98 1    
    72   36   99 1    
    73   36  100 1    
    74   37   38 am   BACKBONE|DICT|INTERRES
    75   37  101 1    
    76   38   39 2    
    77   38   40 1    
    78   40   41 1    
    79   40   42 1    
    80   40  102 1    
    81   41  103 1    
    82   41  104 1    
    83   41  105 1    
    84   42   43 am   BACKBONE|DICT|INTERRES
    85   42  106 1    
    86   43   44 2    
    87   43   45 1    
    88   45   46 1    
    89   45   49 1    
    90   45  107 1    
    91   46   47 1    
    92   46  108 1    
    93   46  109 1    
    94   47   48 1    
    95   48  110 1    
    96   48  111 1    
    97   49   50 am   BACKBONE|DICT|INTERRES
    98   49  112 1    
    99   50   51 2    
   100   50   52 1    
   101   52   53 1    
   102   52   54 1    
   103   52  113 1    
   104   53  114 1    
   105   53  115 1    
   106   53  116 1    
   107   54   55 am   BACKBONE|DICT|INTERRES
   108   54  117 1    
   109   55   56 2    
   110   55   57 1    
   111   57   58 1    
   112   57   59 1    
   113   57  118 1    
   114   58  119 1    
   115   58  120 1    
   116   58  121 1    
   117   59   60 am   BACKBONE|DICT|INTERRES
   118   59  122 1    
   119   60   61 2    
   120   60   62 1    
   121   62   63 1    
   122   62   64 1    
   123   62  123 1    
   124   63  124 1    
   125   63  125 1    
   126   63  126 1    
   127   64   65 am   BACKBONE|DICT|INTERRES
   128   64  127 1    
   129   65   66 2    
@<TRIPOS>SUBSTRUCTURE
     1 UNK         1 GROUP             0       ****    0 ROOT    
