@<TRIPOS>MOLECULE
3R134
127   129    1
SMALL
USER_CHARGES


@<TRIPOS>ATOM
      1 CA         29.8219  -49.3491  -51.3280 C.3       0 UNK        -0.1968 
      2 C          30.6898  -48.4611  -50.4456 C.2       0 UNK         0.4852 
      3 O          30.3735  -48.2771  -49.2691 O.2       0 UNK        -0.5359 
      4 N          31.7698  -47.9106  -51.0108 N.am      1 UNK        -0.4300 
      5 CA         32.7698  -47.0873  -50.3268 C.3       1 UNK         0.0863 
      6 C6         32.8631  -45.6544  -50.9354 C.3       11 UNK        -0.0953 
      7 S7         33.2225  -45.6067  -52.7284 S.3       11 UNK        -0.2369 
      8 C8         32.8811  -43.8651  -53.1543 C.3       11 UNK         0.0226 
      9 C9         32.2798  -43.7407  -54.5507 C.ar      11 UNK        -0.0699 
     10 C10        32.9323  -44.3031  -55.6498 C.ar      11 UNK        -0.0804 
     11 C11        32.3556  -44.2558  -56.9199 C.ar      11 UNK        -0.0871 
     12 C12        31.1301  -43.6097  -57.0986 C.ar      11 UNK        -0.1008 
     13 C13        30.4645  -43.0244  -56.0117 C.ar      11 UNK        -0.0735 
     14 C14        31.0560  -43.0897  -54.7441 C.ar      11 UNK        -0.0945 
     15 C15        29.1072  -42.3265  -56.1460 C.3       11 UNK         0.0169 
     16 S16        28.1953  -42.6804  -57.6906 S.3       11 UNK        -0.2669 
     17 C17        26.4600  -42.5655  -57.1297 C.3       11 UNK        -0.0850 
     18 CA         25.9173  -43.9287  -56.6091 C.3       10 UNK         0.0855 
     19 C          24.4923  -43.8251  -55.9852 C.2       10 UNK         0.5543 
     20 N          23.6781  -44.8728  -56.0268 N.am      10 UNK        -0.7343 
     21 O          24.1248  -42.7905  -55.4330 O.2       10 UNK        -0.5027 
     22 N          26.1026  -45.0241  -57.5778 N.am      10 UNK        -0.4495 
     23 C          25.4924  -45.1502  -58.7633 C.2       10 UNK         0.4903 
     24 O          24.6152  -44.3895  -59.1728 O.2       10 UNK        -0.4860 
     25 CA         25.9375  -46.3185  -59.6545 C.3       9 UNK         0.0227 
     26 CB         27.1657  -45.9137  -60.4883 C.3       9 UNK        -0.1964 
     27 N          26.2549  -47.5193  -58.8736 N.am      9 UNK        -0.4231 
     28 C          25.6849  -48.7184  -59.0536 C.2       9 UNK         0.5014 
     29 O          24.8095  -48.9434  -59.8912 O.2       9 UNK        -0.5270 
     30 CA         26.1748  -49.8826  -58.1735 C.3       8 UNK         0.0284 
     31 CB         27.3438  -50.6192  -58.8476 C.3       8 UNK        -0.1977 
     32 N          26.5557  -49.5014  -56.8109 N.am      8 UNK        -0.4342 
     33 C          25.6840  -49.1307  -55.8614 C.2       8 UNK         0.5039 
     34 O          24.4804  -48.9638  -56.0604 O.2       8 UNK        -0.5547 
     35 CA         26.2463  -48.9270  -54.4481 C.3       7 UNK         0.0281 
     36 CB         26.5395  -50.2785  -53.7739 C.3       7 UNK        -0.1963 
     37 N          27.4661  -48.1247  -54.4893 N.am      7 UNK        -0.4444 
     38 C          27.4989  -46.7986  -54.3085 C.2       7 UNK         0.5104 
     39 O          26.5186  -46.1255  -53.9923 O.2       7 UNK        -0.5100 
     40 CA         28.8536  -46.0944  -54.5090 C.3       6 UNK         0.0396 
     41 CB         29.5512  -45.9512  -53.1524 C.3       6 UNK        -0.1801 
     42 N          29.7490  -46.7664  -55.4602 N.am      6 UNK        -0.4747 
     43 C          29.4616  -46.9590  -56.7568 C.2       6 UNK         0.5012 
     44 O          28.4343  -46.5396  -57.2883 O.2       6 UNK        -0.5003 
     45 CA         30.3858  -47.8763  -57.5834 C.3       5 UNK         0.0782 
     46 C46        31.3016  -47.1075  -58.5750 C.3       11 UNK        -0.0868 
     47 S47        32.9811  -46.7335  -57.9643 S.3       11 UNK        -0.2515 
     48 C48        33.0608  -44.9197  -58.0896 C.3       11 UNK         0.0199 
     49 N          31.0864  -48.8942  -56.7893 N.am      5 UNK        -0.4607 
     50 C          30.4878  -49.8378  -56.0487 C.2       4 UNK         0.5031 
     51 O          29.2635  -49.9329  -55.9444 O.2       4 UNK        -0.5119 
     52 CA         31.3784  -50.8414  -55.2960 C.3       4 UNK         0.0263 
     53 CB         31.2819  -52.2274  -55.9535 C.3       4 UNK        -0.1967 
     54 N          32.7892  -50.4490  -55.2072 N.am      4 UNK        -0.4237 
     55 C          33.2680  -49.4976  -54.3957 C.2       3 UNK         0.4908 
     56 O          32.5623  -48.8110  -53.6497 O.2       3 UNK        -0.5102 
     57 CA         34.7873  -49.2782  -54.4418 C.3       3 UNK         0.0241 
     58 CB         35.1923  -48.4575  -55.6764 C.3       3 UNK        -0.1971 
     59 N          35.1995  -48.5564  -53.2450 N.am      3 UNK        -0.4139 
     60 C          36.2483  -48.8405  -52.4622 C.2       2 UNK         0.5016 
     61 O          37.0680  -49.7267  -52.7069 O.2       2 UNK        -0.5319 
     62 CA         36.4124  -47.9943  -51.1814 C.3       2 UNK         0.0286 
     63 CB         37.5401  -46.9641  -51.3564 C.3       2 UNK        -0.1963 
     64 N          35.1791  -47.2918  -50.8120 N.am      2 UNK        -0.4790 
     65 C          34.0867  -47.8906  -50.3191 C.2       1 UNK         0.5024 
     66 O          34.0853  -49.0553  -49.9141 O.2       1 UNK        -0.4888 
     67 H67        30.2154  -49.4280  -52.3411 H         1 UNK         0.0892 
     68 H68        29.7642  -50.3533  -50.9092 H         1 UNK         0.0892 
     69 H69        28.8115  -48.9455  -51.3884 H         1 UNK         0.0892 
     70 H70        32.0028  -48.1492  -51.9736 H         1 UNK         0.3107 
     71 H71        32.4999  -46.9697  -49.2755 H         1 UNK         0.0773 
     72 H72        31.9092  -45.1500  -50.7738 H         1 UNK         0.0680 
     73 H73        33.6031  -45.0526  -50.4050 H         1 UNK         0.0680 
     74 H74        33.8094  -43.2949  -53.1049 H         1 UNK         0.0650 
     75 H75        32.2085  -43.4320  -52.4128 H         1 UNK         0.0650 
     76 H76        33.8759  -44.8127  -55.5101 H         1 UNK         0.1397 
     77 H77        30.6983  -43.5792  -58.0882 H         1 UNK         0.1363 
     78 H78        30.5462  -42.6514  -53.8969 H         1 UNK         0.1355 
     79 H79        29.2528  -41.2486  -56.0660 H         1 UNK         0.0707 
     80 H80        28.4845  -42.6189  -55.2992 H         1 UNK         0.0707 
     81 H81        26.3902  -41.7958  -56.3588 H         1 UNK         0.1034 
     82 H82        25.8508  -42.2103  -57.9623 H         1 UNK         0.1034 
     83 H83        26.5489  -44.1992  -55.7652 H         1 UNK         0.0482 
     84 H84        22.7616  -44.8061  -55.6139 H         1 UNK         0.3460 
     85 H85        23.9804  -45.7322  -56.4572 H         1 UNK         0.3460 
     86 H86        26.8787  -45.6461  -57.3692 H         1 UNK         0.2989 
     87 H87        25.1162  -46.5191  -60.3453 H         1 UNK         0.0559 
     88 H88        28.0238  -45.6749  -59.8585 H         1 UNK         0.0848 
     89 H89        26.9523  -45.0314  -61.0932 H         1 UNK         0.0848 
     90 H90        27.4617  -46.7107  -61.1705 H         1 UNK         0.0848 
     91 H91        26.9723  -47.4143  -58.1630 H         1 UNK         0.3144 
     92 H92        25.3468  -50.5902  -58.0907 H         1 UNK         0.0727 
     93 H93        27.6687  -51.4761  -58.2570 H         1 UNK         0.0790 
     94 H94        28.2042  -49.9689  -58.9964 H         1 UNK         0.0790 
     95 H95        27.0505  -50.9955  -59.8286 H         1 UNK         0.0790 
     96 H96        27.5268  -49.6519  -56.5452 H         1 UNK         0.3215 
     97 H97        25.4828  -48.4192  -53.8542 H         1 UNK         0.0863 
     98 H98        26.8832  -50.1412  -52.7488 H         1 UNK         0.0808 
     99 H99        27.3010  -50.8484  -54.3073 H         1 UNK         0.0808 
    100 H100       25.6406  -50.8951  -53.7333 H         1 UNK         0.0808 
    101 H101       28.3102  -48.5982  -54.7920 H         1 UNK         0.3118 
    102 H102       28.6483  -45.0956  -54.8963 H         1 UNK         0.0546 
    103 H103       28.8864  -45.5179  -52.4038 H         1 UNK         0.0828 
    104 H104       30.4174  -45.3022  -53.2191 H         1 UNK         0.0828 
    105 H105       29.8857  -46.9152  -52.7791 H         1 UNK         0.0828 
    106 H106       30.6144  -47.1414  -55.0966 H         1 UNK         0.3005 
    107 H107       29.6922  -48.4374  -58.2107 H         1 UNK         0.1257 
    108 H108       30.8189  -46.1956  -58.9326 H         1 UNK         0.0775 
    109 H109       31.4367  -47.7196  -59.4681 H         1 UNK         0.0775 
    110 H110       34.1083  -44.6146  -58.0937 H         1 UNK         0.0840 
    111 H111       32.6461  -44.5921  -59.0442 H         1 UNK         0.0840 
    112 H112       32.0948  -48.8573  -56.8189 H         1 UNK         0.2987 
    113 H113       30.9816  -50.9203  -54.2817 H         1 UNK         0.0785 
    114 H114       30.2456  -52.5658  -56.0029 H         1 UNK         0.0798 
    115 H115       31.8364  -52.9755  -55.3868 H         1 UNK         0.0798 
    116 H116       31.6702  -52.2199  -56.9728 H         1 UNK         0.0798 
    117 H117       33.4353  -50.9597  -55.7926 H         1 UNK         0.3079 
    118 H118       35.2714  -50.2566  -54.4768 H         1 UNK         0.0794 
    119 H119       34.7428  -47.4638  -55.6590 H         1 UNK         0.0786 
    120 H120       34.8824  -48.9453  -56.6012 H         1 UNK         0.0786 
    121 H121       36.2738  -48.3301  -55.7262 H         1 UNK         0.0786 
    122 H122       34.5465  -47.8458  -52.9410 H         1 UNK         0.3032 
    123 H123       36.6858  -48.6748  -50.3716 H         1 UNK         0.1094 
    124 H124       37.3207  -46.2564  -52.1570 H         1 UNK         0.0794 
    125 H125       37.7048  -46.3963  -50.4404 H         1 UNK         0.0794 
    126 H126       38.4819  -47.4555  -51.6049 H         1 UNK         0.0794 
    127 H127       35.0898  -46.3363  -51.1314 H         1 UNK         0.3016 
@<TRIPOS>BOND
     1    1    2 1    
     2    1   67 1    
     3    1   68 1    
     4    1   69 1    
     5    2    3 2    
     6    2    4 am   BACKBONE|DICT|INTERRES
     7    4    5 1    
     8    4   70 1    
     9    5    6 1    
    10    5   65 1    
    11    5   71 1    
    12    6    7 1    
    13    6   72 1    
    14    6   73 1    
    15    7    8 1    
    16    8    9 1    
    17    8   74 1    
    18    8   75 1    
    19    9   10 ar   
    20    9   14 ar   
    21   10   11 ar   
    22   10   76 1    
    23   11   12 ar   
    24   11   48 1    
    25   12   13 ar   
    26   12   77 1    
    27   13   14 ar   
    28   13   15 1    
    29   14   78 1    
    30   15   16 1    
    31   15   79 1    
    32   15   80 1    
    33   16   17 1    
    34   17   18 1    
    35   17   81 1    
    36   17   82 1    
    37   18   19 1    
    38   18   22 1    
    39   18   83 1    
    40   19   20 am   BACKBONE|DICT|INTERRES
    41   19   21 2    
    42   20   84 1    
    43   20   85 1    
    44   22   23 am   BACKBONE|DICT|INTERRES
    45   22   86 1    
    46   23   24 2    
    47   23   25 1    
    48   25   26 1    
    49   25   27 1    
    50   25   87 1    
    51   26   88 1    
    52   26   89 1    
    53   26   90 1    
    54   27   28 am   BACKBONE|DICT|INTERRES
    55   27   91 1    
    56   28   29 2    
    57   28   30 1    
    58   30   31 1    
    59   30   32 1    
    60   30   92 1    
    61   31   93 1    
    62   31   94 1    
    63   31   95 1    
    64   32   33 am   BACKBONE|DICT|INTERRES
    65   32   96 1    
    66   33   34 2    
    67   33   35 1    
    68   35   36 1    
    69   35   37 1    
    70   35   97 1    
    71   36   98 1    
    72   36   99 1    
    73   36  100 1    
    74   37   38 am   BACKBONE|DICT|INTERRES
    75   37  101 1    
    76   38   39 2    
    77   38   40 1    
    78   40   41 1    
    79   40   42 1    
    80   40  102 1    
    81   41  103 1    
    82   41  104 1    
    83   41  105 1    
    84   42   43 am   BACKBONE|DICT|INTERRES
    85   42  106 1    
    86   43   44 2    
    87   43   45 1    
    88   45   46 1    
    89   45   49 1    
    90   45  107 1    
    91   46   47 1    
    92   46  108 1    
    93   46  109 1    
    94   47   48 1    
    95   48  110 1    
    96   48  111 1    
    97   49   50 am   BACKBONE|DICT|INTERRES
    98   49  112 1    
    99   50   51 2    
   100   50   52 1    
   101   52   53 1    
   102   52   54 1    
   103   52  113 1    
   104   53  114 1    
   105   53  115 1    
   106   53  116 1    
   107   54   55 am   BACKBONE|DICT|INTERRES
   108   54  117 1    
   109   55   56 2    
   110   55   57 1    
   111   57   58 1    
   112   57   59 1    
   113   57  118 1    
   114   58  119 1    
   115   58  120 1    
   116   58  121 1    
   117   59   60 am   BACKBONE|DICT|INTERRES
   118   59  122 1    
   119   60   61 2    
   120   60   62 1    
   121   62   63 1    
   122   62   64 1    
   123   62  123 1    
   124   63  124 1    
   125   63  125 1    
   126   63  126 1    
   127   64   65 am   BACKBONE|DICT|INTERRES
   128   64  127 1    
   129   65   66 2    
@<TRIPOS>SUBSTRUCTURE
     1 UNK         1 GROUP             0       ****    0 ROOT    
