@<TRIPOS>MOLECULE
3R134
127   129    1
SMALL
USER_CHARGES


@<TRIPOS>ATOM
      1 CA         33.2408  -50.6059  -57.5023 C.3       0 UNK        -0.1968 
      2 C          33.2933  -49.7666  -56.2355 C.2       0 UNK         0.4852 
      3 O          33.1063  -50.3019  -55.1427 O.2       0 UNK        -0.5359 
      4 N          33.5640  -48.4603  -56.3705 N.am      1 UNK        -0.4300 
      5 CA         33.6131  -47.4683  -55.2839 C.3       1 UNK         0.0863 
      6 C6         33.9276  -46.0525  -55.8183 C.3       11 UNK        -0.0953 
      7 S7         32.6625  -45.4467  -56.9831 S.3       11 UNK        -0.2369 
      8 C8         32.7675  -43.6496  -56.7142 C.3       11 UNK         0.0226 
      9 C9         31.7864  -43.1683  -55.6540 C.ar      11 UNK        -0.0699 
     10 C10        32.1240  -43.2062  -54.2966 C.ar      11 UNK        -0.0804 
     11 C11        31.2311  -42.7378  -53.3283 C.ar      11 UNK        -0.0871 
     12 C12        30.0016  -42.2044  -53.7295 C.ar      11 UNK        -0.1008 
     13 C13        29.6568  -42.1485  -55.0835 C.ar      11 UNK        -0.0735 
     14 C14        30.5485  -42.6436  -56.0394 C.ar      11 UNK        -0.0945 
     15 C15        28.3452  -41.5039  -55.5136 C.3       11 UNK         0.0169 
     16 S16        26.8959  -42.5179  -55.0876 S.3       11 UNK        -0.2669 
     17 C17        26.9797  -43.8470  -56.3367 C.3       11 UNK        -0.0850 
     18 CA         25.7989  -43.7993  -57.3444 C.3       10 UNK         0.0855 
     19 C          26.1356  -42.9536  -58.6100 C.2       10 UNK         0.5543 
     20 N          26.1196  -43.5095  -59.8165 N.am      10 UNK        -0.7343 
     21 O          26.4034  -41.7602  -58.4998 O.2       10 UNK        -0.5027 
     22 N          25.3065  -45.1539  -57.6327 N.am      10 UNK        -0.4495 
     23 C          24.0681  -45.4416  -58.0583 C.2       10 UNK         0.4903 
     24 O          23.1672  -44.6052  -58.1431 O.2       10 UNK        -0.4860 
     25 CA         23.7891  -46.9055  -58.4667 C.3       9 UNK         0.0227 
     26 CB         22.6402  -47.0272  -59.4904 C.3       9 UNK        -0.1964 
     27 N          24.9828  -47.6162  -58.9432 N.am      9 UNK        -0.4231 
     28 C          25.7919  -47.2587  -59.9541 C.2       9 UNK         0.5014 
     29 O          25.5708  -46.3013  -60.6981 O.2       9 UNK        -0.5270 
     30 CA         27.0885  -48.0775  -60.1320 C.3       8 UNK         0.0284 
     31 CB         28.2285  -47.2332  -60.7418 C.3       8 UNK        -0.1977 
     32 N          27.5542  -48.7458  -58.9058 N.am      8 UNK        -0.4342 
     33 C          27.8499  -48.1735  -57.7282 C.2       8 UNK         0.5039 
     34 O          27.7401  -46.9663  -57.4970 O.2       8 UNK        -0.5547 
     35 CA         28.3567  -49.1326  -56.6365 C.3       7 UNK         0.0281 
     36 CB         29.8788  -49.2973  -56.7483 C.3       7 UNK        -0.1963 
     37 N          28.0258  -48.7047  -55.2754 N.am      7 UNK        -0.4444 
     38 C          26.7870  -48.5101  -54.7964 C.2       7 UNK         0.5104 
     39 O          25.7635  -48.6956  -55.4581 O.2       7 UNK        -0.5100 
     40 CA         26.6498  -48.0706  -53.3222 C.3       6 UNK         0.0396 
     41 CB         26.0613  -49.2114  -52.4756 C.3       6 UNK        -0.1801 
     42 N          27.9129  -47.6398  -52.7159 N.am      6 UNK        -0.4747 
     43 C          28.5394  -46.4844  -52.9826 C.2       6 UNK         0.5012 
     44 O          28.0421  -45.6034  -53.6769 O.2       6 UNK        -0.5003 
     45 CA         29.9576  -46.2706  -52.4053 C.3       5 UNK         0.0782 
     46 C46        29.9852  -45.0629  -51.4357 C.3       11 UNK        -0.0868 
     47 S47        31.6895  -44.4671  -51.1778 S.3       11 UNK        -0.2515 
     48 C48        31.6086  -42.7731  -51.8515 C.3       11 UNK         0.0199 
     49 N          30.5229  -47.4751  -51.7762 N.am      5 UNK        -0.4607 
     50 C          30.8776  -48.5921  -52.4216 C.2       4 UNK         0.5031 
     51 O          30.7622  -48.7437  -53.6372 O.2       4 UNK        -0.5119 
     52 CA         31.3249  -49.7664  -51.5490 C.3       4 UNK         0.0263 
     53 CB         30.1301  -50.7020  -51.2745 C.3       4 UNK        -0.1967 
     54 N          32.4080  -50.4968  -52.2045 N.am      4 UNK        -0.4237 
     55 C          33.2349  -51.3428  -51.5726 C.2       3 UNK         0.4908 
     56 O          33.1490  -51.6193  -50.3751 O.2       3 UNK        -0.5102 
     57 CA         34.3667  -51.9693  -52.3974 C.3       3 UNK         0.0241 
     58 CB         33.8321  -53.0559  -53.3464 C.3       3 UNK        -0.1971 
     59 N          35.0779  -50.9395  -53.1526 N.am      3 UNK        -0.4139 
     60 C          36.1067  -50.2262  -52.6707 C.2       2 UNK         0.5016 
     61 O          36.6284  -50.4332  -51.5741 O.2       2 UNK        -0.5319 
     62 CA         36.6592  -49.0875  -53.5494 C.3       2 UNK         0.0286 
     63 CB         37.8984  -49.5610  -54.3263 C.3       2 UNK        -0.1963 
     64 N          35.6784  -48.5503  -54.4948 N.am      2 UNK        -0.4790 
     65 C          34.5989  -47.8314  -54.1519 C.2       1 UNK         0.5024 
     66 O          34.3569  -47.4739  -52.9991 O.2       1 UNK        -0.4888 
     67 H67        34.0678  -51.3152  -57.5153 H         1 UNK         0.0892 
     68 H68        32.3094  -51.1700  -57.5388 H         1 UNK         0.0892 
     69 H69        33.3009  -49.9926  -58.4012 H         1 UNK         0.0892 
     70 H70        33.6998  -48.0803  -57.2966 H         1 UNK         0.3107 
     71 H71        32.6196  -47.4415  -54.8354 H         1 UNK         0.0773 
     72 H72        34.0062  -45.3498  -54.9890 H         1 UNK         0.0680 
     73 H73        34.8958  -46.0352  -56.3225 H         1 UNK         0.0680 
     74 H74        32.5626  -43.1493  -57.6619 H         1 UNK         0.0650 
     75 H75        33.7865  -43.3682  -56.4440 H         1 UNK         0.0650 
     76 H76        33.0834  -43.5933  -53.9856 H         1 UNK         0.1397 
     77 H77        29.3106  -41.8222  -52.9905 H         1 UNK         0.1363 
     78 H78        30.2892  -42.5994  -57.0884 H         1 UNK         0.1355 
     79 H79        28.3428  -41.2965  -56.5847 H         1 UNK         0.0707 
     80 H80        28.2489  -40.5363  -55.0192 H         1 UNK         0.0707 
     81 H81        27.9468  -43.8526  -56.8426 H         1 UNK         0.1034 
     82 H82        26.9528  -44.7850  -55.7826 H         1 UNK         0.1034 
     83 H83        24.9716  -43.2761  -56.8609 H         1 UNK         0.0482 
     84 H84        25.8868  -44.4887  -59.9455 H         1 UNK         0.3460 
     85 H85        26.3333  -42.9398  -60.6192 H         1 UNK         0.3460 
     86 H86        26.0083  -45.8887  -57.6119 H         1 UNK         0.2989 
     87 H87        23.4771  -47.4171  -57.5551 H         1 UNK         0.0559 
     88 H88        21.7101  -46.6251  -59.0869 H         1 UNK         0.0848 
     89 H89        22.4521  -48.0676  -59.7551 H         1 UNK         0.0848 
     90 H90        22.8580  -46.4813  -60.4090 H         1 UNK         0.0848 
     91 H91        25.2761  -48.3971  -58.3717 H         1 UNK         0.3144 
     92 H92        26.8468  -48.8701  -60.8416 H         1 UNK         0.0727 
     93 H93        28.4783  -46.3789  -60.1111 H         1 UNK         0.0790 
     94 H94        27.9502  -46.8433  -61.7217 H         1 UNK         0.0790 
     95 H95        29.1334  -47.8255  -60.8770 H         1 UNK         0.0790 
     96 H96        27.6694  -49.7477  -58.9844 H         1 UNK         0.3215 
     97 H97        27.8883  -50.1071  -56.7887 H         1 UNK         0.0863 
     98 H98        30.2470  -50.0426  -56.0427 H         1 UNK         0.0808 
     99 H99        30.3990  -48.3597  -56.5451 H         1 UNK         0.0808 
    100 H100       30.1712  -49.6238  -57.7470 H         1 UNK         0.0808 
    101 H101       28.8118  -48.5304  -54.6609 H         1 UNK         0.3118 
    102 H102       25.9509  -47.2318  -53.2973 H         1 UNK         0.0546 
    103 H103       26.7162  -50.0835  -52.4610 H         1 UNK         0.0828 
    104 H104       25.0978  -49.5352  -52.8718 H         1 UNK         0.0828 
    105 H105       25.8949  -48.8972  -51.4451 H         1 UNK         0.0828 
    106 H106       28.3866  -48.3087  -52.1275 H         1 UNK         0.3005 
    107 H107       30.5814  -46.0265  -53.2695 H         1 UNK         0.1257 
    108 H108       29.3777  -44.2372  -51.8102 H         1 UNK         0.0775 
    109 H109       29.5531  -45.3308  -50.4701 H         1 UNK         0.0775 
    110 H110       30.9045  -42.1889  -51.2568 H         1 UNK         0.0840 
    111 H111       32.5813  -42.2967  -51.7208 H         1 UNK         0.0840 
    112 H112       30.6387  -47.4309  -50.7739 H         1 UNK         0.2987 
    113 H113       31.6987  -49.3708  -50.6019 H         1 UNK         0.0785 
    114 H114       29.3105  -50.1653  -50.7953 H         1 UNK         0.0798 
    115 H115       30.4044  -51.5212  -50.6100 H         1 UNK         0.0798 
    116 H116       29.7429  -51.1371  -52.1970 H         1 UNK         0.0798 
    117 H117       32.5279  -50.3107  -53.1990 H         1 UNK         0.3079 
    118 H118       35.0605  -52.4521  -51.7055 H         1 UNK         0.0794 
    119 H119       34.6386  -53.5076  -53.9241 H         1 UNK         0.0786 
    120 H120       33.0958  -52.6659  -54.0491 H         1 UNK         0.0786 
    121 H121       33.3488  -53.8558  -52.7839 H         1 UNK         0.0786 
    122 H122       34.6528  -50.6610  -54.0322 H         1 UNK         0.3032 
    123 H123       36.9616  -48.2798  -52.8786 H         1 UNK         0.1094 
    124 H124       37.6560  -50.3625  -55.0252 H         1 UNK         0.0794 
    125 H125       38.3489  -48.7450  -54.8918 H         1 UNK         0.0794 
    126 H126       38.6625  -49.9416  -53.6468 H         1 UNK         0.0794 
    127 H127       35.7989  -48.7944  -55.4674 H         1 UNK         0.3016 
@<TRIPOS>BOND
     1    1    2 1    
     2    1   67 1    
     3    1   68 1    
     4    1   69 1    
     5    2    3 2    
     6    2    4 am   BACKBONE|DICT|INTERRES
     7    4    5 1    
     8    4   70 1    
     9    5    6 1    
    10    5   65 1    
    11    5   71 1    
    12    6    7 1    
    13    6   72 1    
    14    6   73 1    
    15    7    8 1    
    16    8    9 1    
    17    8   74 1    
    18    8   75 1    
    19    9   10 ar   
    20    9   14 ar   
    21   10   11 ar   
    22   10   76 1    
    23   11   12 ar   
    24   11   48 1    
    25   12   13 ar   
    26   12   77 1    
    27   13   14 ar   
    28   13   15 1    
    29   14   78 1    
    30   15   16 1    
    31   15   79 1    
    32   15   80 1    
    33   16   17 1    
    34   17   18 1    
    35   17   81 1    
    36   17   82 1    
    37   18   19 1    
    38   18   22 1    
    39   18   83 1    
    40   19   20 am   BACKBONE|DICT|INTERRES
    41   19   21 2    
    42   20   84 1    
    43   20   85 1    
    44   22   23 am   BACKBONE|DICT|INTERRES
    45   22   86 1    
    46   23   24 2    
    47   23   25 1    
    48   25   26 1    
    49   25   27 1    
    50   25   87 1    
    51   26   88 1    
    52   26   89 1    
    53   26   90 1    
    54   27   28 am   BACKBONE|DICT|INTERRES
    55   27   91 1    
    56   28   29 2    
    57   28   30 1    
    58   30   31 1    
    59   30   32 1    
    60   30   92 1    
    61   31   93 1    
    62   31   94 1    
    63   31   95 1    
    64   32   33 am   BACKBONE|DICT|INTERRES
    65   32   96 1    
    66   33   34 2    
    67   33   35 1    
    68   35   36 1    
    69   35   37 1    
    70   35   97 1    
    71   36   98 1    
    72   36   99 1    
    73   36  100 1    
    74   37   38 am   BACKBONE|DICT|INTERRES
    75   37  101 1    
    76   38   39 2    
    77   38   40 1    
    78   40   41 1    
    79   40   42 1    
    80   40  102 1    
    81   41  103 1    
    82   41  104 1    
    83   41  105 1    
    84   42   43 am   BACKBONE|DICT|INTERRES
    85   42  106 1    
    86   43   44 2    
    87   43   45 1    
    88   45   46 1    
    89   45   49 1    
    90   45  107 1    
    91   46   47 1    
    92   46  108 1    
    93   46  109 1    
    94   47   48 1    
    95   48  110 1    
    96   48  111 1    
    97   49   50 am   BACKBONE|DICT|INTERRES
    98   49  112 1    
    99   50   51 2    
   100   50   52 1    
   101   52   53 1    
   102   52   54 1    
   103   52  113 1    
   104   53  114 1    
   105   53  115 1    
   106   53  116 1    
   107   54   55 am   BACKBONE|DICT|INTERRES
   108   54  117 1    
   109   55   56 2    
   110   55   57 1    
   111   57   58 1    
   112   57   59 1    
   113   57  118 1    
   114   58  119 1    
   115   58  120 1    
   116   58  121 1    
   117   59   60 am   BACKBONE|DICT|INTERRES
   118   59  122 1    
   119   60   61 2    
   120   60   62 1    
   121   62   63 1    
   122   62   64 1    
   123   62  123 1    
   124   63  124 1    
   125   63  125 1    
   126   63  126 1    
   127   64   65 am   BACKBONE|DICT|INTERRES
   128   64  127 1    
   129   65   66 2    
@<TRIPOS>SUBSTRUCTURE
     1 UNK         1 GROUP             0       ****    0 ROOT    
