@<TRIPOS>MOLECULE
3R134
127   129    1
SMALL
USER_CHARGES


@<TRIPOS>ATOM
      1 CA         35.3575  -43.8667  -49.7220 C.3       0 UNK        -0.1968 
      2 C          36.1387  -44.8889  -50.5349 C.2       0 UNK         0.4852 
      3 O          37.1632  -45.3898  -50.0681 O.2       0 UNK        -0.5359 
      4 N          35.6657  -45.1948  -51.7489 N.am      1 UNK        -0.4300 
      5 CA         36.2222  -46.2179  -52.6374 C.3       1 UNK         0.0863 
      6 C6         35.7896  -45.9974  -54.1116 C.3       11 UNK        -0.0953 
      7 S7         33.9827  -45.8556  -54.3564 S.3       11 UNK        -0.2369 
      8 C8         33.8305  -44.0734  -54.6877 C.3       11 UNK         0.0226 
      9 C9         32.3735  -43.6495  -54.7650 C.ar      11 UNK        -0.0699 
     10 C10        31.6988  -43.2339  -53.6134 C.ar      11 UNK        -0.0804 
     11 C11        30.3555  -42.8506  -53.6776 C.ar      11 UNK        -0.0871 
     12 C12        29.6921  -42.8650  -54.9077 C.ar      11 UNK        -0.1008 
     13 C13        30.3553  -43.2886  -56.0623 C.ar      11 UNK        -0.0735 
     14 C14        31.6964  -43.6762  -55.9872 C.ar      11 UNK        -0.0945 
     15 C15        29.6144  -43.3562  -57.3853 C.3       11 UNK         0.0169 
     16 S16        28.8548  -44.9918  -57.5999 S.3       11 UNK        -0.2669 
     17 C17        28.0687  -44.7968  -59.2344 C.3       11 UNK        -0.0850 
     18 CA         26.5307  -44.6154  -59.1489 C.3       10 UNK         0.0855 
     19 C          25.9469  -44.2715  -60.5522 C.2       10 UNK         0.5543 
     20 N          25.1245  -45.1130  -61.1689 N.am      10 UNK        -0.7343 
     21 O          26.2464  -43.2091  -61.0917 O.2       10 UNK        -0.5027 
     22 N          25.8787  -45.7545  -58.4823 N.am      10 UNK        -0.4495 
     23 C          24.6296  -45.7335  -57.9933 C.2       10 UNK         0.4903 
     24 O          23.9479  -44.7086  -57.9309 O.2       10 UNK        -0.4860 
     25 CA         24.0240  -47.0732  -57.5120 C.3       9 UNK         0.0227 
     26 CB         22.4852  -47.0980  -57.6222 C.3       9 UNK        -0.1964 
     27 N          24.5970  -48.2587  -58.1618 N.am      9 UNK        -0.4231 
     28 C          24.6961  -48.5093  -59.4782 C.2       9 UNK         0.5014 
     29 O          24.1892  -47.7989  -60.3488 O.2       9 UNK        -0.5270 
     30 CA         25.5600  -49.7252  -59.8871 C.3       8 UNK         0.0284 
     31 CB         26.1775  -49.5598  -61.2921 C.3       8 UNK        -0.1977 
     32 N          26.6039  -50.0558  -58.9025 N.am      8 UNK        -0.4342 
     33 C          27.5541  -49.2340  -58.4289 C.2       8 UNK         0.5039 
     34 O          27.7319  -48.0860  -58.8357 O.2       8 UNK        -0.5547 
     35 CA         28.3755  -49.7540  -57.2351 C.3       7 UNK         0.0281 
     36 CB         29.8543  -49.3524  -57.3631 C.3       7 UNK        -0.1963 
     37 N          27.8613  -49.2675  -55.9473 N.am      7 UNK        -0.4444 
     38 C          26.6125  -49.4287  -55.4780 C.2       7 UNK         0.5104 
     39 O          25.7192  -50.0068  -56.0982 O.2       7 UNK        -0.5100 
     40 CA         26.2772  -48.8762  -54.0805 C.3       6 UNK         0.0396 
     41 CB         26.1063  -50.0299  -53.0790 C.3       6 UNK        -0.1801 
     42 N          27.2709  -47.9424  -53.5556 N.am      6 UNK        -0.4747 
     43 C          27.4350  -46.6728  -53.9533 C.2       6 UNK         0.5012 
     44 O          26.7161  -46.1267  -54.7897 O.2       6 UNK        -0.5003 
     45 CA         28.5841  -45.8785  -53.2910 C.3       5 UNK         0.0782 
     46 C46        28.0060  -44.7930  -52.3422 C.3       11 UNK        -0.0868 
     47 S47        29.2654  -43.8979  -51.3646 S.3       11 UNK        -0.2515 
     48 C48        29.6159  -42.4499  -52.4112 C.3       11 UNK         0.0199 
     49 N          29.5711  -46.7375  -52.6191 N.am      5 UNK        -0.4607 
     50 C          30.4028  -47.5815  -53.2421 C.2       4 UNK         0.5031 
     51 O          30.3855  -47.7658  -54.4599 O.2       4 UNK        -0.5119 
     52 CA         31.3820  -48.3423  -52.3280 C.3       4 UNK         0.0263 
     53 CB         30.6400  -49.2961  -51.3669 C.3       4 UNK        -0.1967 
     54 N          32.4423  -49.0459  -53.0591 N.am      4 UNK        -0.4237 
     55 C          32.3383  -50.1042  -53.8807 C.2       3 UNK         0.4908 
     56 O          31.2968  -50.7283  -54.0883 O.2       3 UNK        -0.5102 
     57 CA         33.6246  -50.5571  -54.5999 C.3       3 UNK         0.0241 
     58 CB         33.6593  -50.0014  -56.0333 C.3       3 UNK        -0.1971 
     59 N          34.8506  -50.1550  -53.9065 N.am      3 UNK        -0.4139 
     60 C          35.2950  -50.6913  -52.7610 C.2       2 UNK         0.5016 
     61 O          34.7655  -51.6527  -52.2026 O.2       2 UNK        -0.5319 
     62 CA         36.5301  -50.0318  -52.1177 C.3       2 UNK         0.0286 
     63 CB         37.8052  -50.8102  -52.4805 C.3       2 UNK        -0.1963 
     64 N          36.7092  -48.6172  -52.4742 N.am      2 UNK        -0.4790 
     65 C          35.8600  -47.6333  -52.1436 C.2       1 UNK         0.5024 
     66 O          34.8099  -47.8215  -51.5242 O.2       1 UNK        -0.4888 
     67 H67        34.4839  -43.4983  -50.2597 H         1 UNK         0.0892 
     68 H68        35.0168  -44.3124  -48.7878 H         1 UNK         0.0892 
     69 H69        35.9918  -43.0139  -49.4818 H         1 UNK         0.0892 
     70 H70        34.7925  -44.7950  -52.0586 H         1 UNK         0.3107 
     71 H71        37.3105  -46.1306  -52.5988 H         1 UNK         0.0773 
     72 H72        36.2711  -45.0959  -54.4937 H         1 UNK         0.0680 
     73 H73        36.1577  -46.8045  -54.7476 H         1 UNK         0.0680 
     74 H74        34.3410  -43.8363  -55.6225 H         1 UNK         0.0650 
     75 H75        34.3404  -43.5082  -53.9062 H         1 UNK         0.0650 
     76 H76        32.2117  -43.2273  -52.6613 H         1 UNK         0.1397 
     77 H77        28.6501  -42.5800  -54.9635 H         1 UNK         0.1363 
     78 H78        32.2087  -44.0139  -56.8779 H         1 UNK         0.1355 
     79 H79        30.3009  -43.1585  -58.2101 H         1 UNK         0.0707 
     80 H80        28.8419  -42.5866  -57.4281 H         1 UNK         0.0707 
     81 H81        28.5292  -43.9522  -59.7504 H         1 UNK         0.1034 
     82 H82        28.3108  -45.6759  -59.8343 H         1 UNK         0.1034 
     83 H83        26.3462  -43.7357  -58.5293 H         1 UNK         0.0482 
     84 H84        24.7578  -44.8657  -62.0738 H         1 UNK         0.3460 
     85 H85        24.8611  -45.9978  -60.7457 H         1 UNK         0.3460 
     86 H86        26.4010  -46.6262  -58.5007 H         1 UNK         0.2989 
     87 H87        24.2835  -47.1553  -56.4556 H         1 UNK         0.0559 
     88 H88        22.0346  -46.3013  -57.0291 H         1 UNK         0.0848 
     89 H89        22.0761  -48.0400  -57.2575 H         1 UNK         0.0848 
     90 H90        22.1537  -46.9643  -58.6525 H         1 UNK         0.0848 
     91 H91        25.0436  -48.9204  -57.5310 H         1 UNK         0.3144 
     92 H92        24.8829  -50.5799  -59.9184 H         1 UNK         0.0727 
     93 H93        26.8174  -48.6785  -61.3498 H         1 UNK         0.0790 
     94 H94        25.4024  -49.4485  -62.0514 H         1 UNK         0.0790 
     95 H95        26.7762  -50.4278  -61.5677 H         1 UNK         0.0790 
     96 H96        26.4991  -50.9554  -58.4516 H         1 UNK         0.3215 
     97 H97        28.3237  -50.8444  -57.2240 H         1 UNK         0.0863 
     98 H98        30.4490  -49.7835  -56.5585 H         1 UNK         0.0808 
     99 H99        29.9828  -48.2692  -57.3254 H         1 UNK         0.0808 
    100 H100       30.2770  -49.7006  -58.3062 H         1 UNK         0.0808 
    101 H101       28.5220  -48.7538  -55.3761 H         1 UNK         0.3118 
    102 H102       25.3227  -48.3516  -54.1601 H         1 UNK         0.0546 
    103 H103       27.0310  -50.5941  -52.9504 H         1 UNK         0.0828 
    104 H104       25.3421  -50.7314  -53.4170 H         1 UNK         0.0828 
    105 H105       25.7952  -49.6647  -52.1002 H         1 UNK         0.0828 
    106 H106       27.9083  -48.3006  -52.8593 H         1 UNK         0.3005 
    107 H107       29.1082  -45.3817  -54.1090 H         1 UNK         0.1257 
    108 H108       27.3159  -45.2470  -51.6282 H         1 UNK         0.0775 
    109 H109       27.4155  -44.0698  -52.9081 H         1 UNK         0.0775 
    110 H110       28.6853  -41.9300  -52.6444 H         1 UNK         0.0840 
    111 H111       30.2258  -41.7438  -51.8457 H         1 UNK         0.0840 
    112 H112       29.6494  -46.6125  -51.6200 H         1 UNK         0.2987 
    113 H113       31.8978  -47.5912  -51.7271 H         1 UNK         0.0785 
    114 H114       29.9880  -48.7470  -50.6870 H         1 UNK         0.0798 
    115 H115       31.3415  -49.8590  -50.7509 H         1 UNK         0.0798 
    116 H116       30.0169  -50.0130  -51.9026 H         1 UNK         0.0798 
    117 H117       33.3592  -48.6313  -52.9494 H         1 UNK         0.3079 
    118 H118       33.6059  -51.6478  -54.6546 H         1 UNK         0.0794 
    119 H119       34.5512  -50.3294  -56.5674 H         1 UNK         0.0786 
    120 H120       33.6400  -48.9103  -56.0440 H         1 UNK         0.0786 
    121 H121       32.7980  -50.3479  -56.6051 H         1 UNK         0.0786 
    122 H122       35.3657  -49.3810  -54.2993 H         1 UNK         0.3032 
    123 H123       36.3914  -50.0863  -51.0353 H         1 UNK         0.1094 
    124 H124       38.0114  -50.7732  -53.5510 H         1 UNK         0.0794 
    125 H125       38.6753  -50.4152  -51.9556 H         1 UNK         0.0794 
    126 H126       37.7130  -51.8614  -52.2030 H         1 UNK         0.0794 
    127 H127       37.5482  -48.3854  -52.9881 H         1 UNK         0.3016 
@<TRIPOS>BOND
     1    1    2 1    
     2    1   67 1    
     3    1   68 1    
     4    1   69 1    
     5    2    3 2    
     6    2    4 am   BACKBONE|DICT|INTERRES
     7    4    5 1    
     8    4   70 1    
     9    5    6 1    
    10    5   65 1    
    11    5   71 1    
    12    6    7 1    
    13    6   72 1    
    14    6   73 1    
    15    7    8 1    
    16    8    9 1    
    17    8   74 1    
    18    8   75 1    
    19    9   10 ar   
    20    9   14 ar   
    21   10   11 ar   
    22   10   76 1    
    23   11   12 ar   
    24   11   48 1    
    25   12   13 ar   
    26   12   77 1    
    27   13   14 ar   
    28   13   15 1    
    29   14   78 1    
    30   15   16 1    
    31   15   79 1    
    32   15   80 1    
    33   16   17 1    
    34   17   18 1    
    35   17   81 1    
    36   17   82 1    
    37   18   19 1    
    38   18   22 1    
    39   18   83 1    
    40   19   20 am   BACKBONE|DICT|INTERRES
    41   19   21 2    
    42   20   84 1    
    43   20   85 1    
    44   22   23 am   BACKBONE|DICT|INTERRES
    45   22   86 1    
    46   23   24 2    
    47   23   25 1    
    48   25   26 1    
    49   25   27 1    
    50   25   87 1    
    51   26   88 1    
    52   26   89 1    
    53   26   90 1    
    54   27   28 am   BACKBONE|DICT|INTERRES
    55   27   91 1    
    56   28   29 2    
    57   28   30 1    
    58   30   31 1    
    59   30   32 1    
    60   30   92 1    
    61   31   93 1    
    62   31   94 1    
    63   31   95 1    
    64   32   33 am   BACKBONE|DICT|INTERRES
    65   32   96 1    
    66   33   34 2    
    67   33   35 1    
    68   35   36 1    
    69   35   37 1    
    70   35   97 1    
    71   36   98 1    
    72   36   99 1    
    73   36  100 1    
    74   37   38 am   BACKBONE|DICT|INTERRES
    75   37  101 1    
    76   38   39 2    
    77   38   40 1    
    78   40   41 1    
    79   40   42 1    
    80   40  102 1    
    81   41  103 1    
    82   41  104 1    
    83   41  105 1    
    84   42   43 am   BACKBONE|DICT|INTERRES
    85   42  106 1    
    86   43   44 2    
    87   43   45 1    
    88   45   46 1    
    89   45   49 1    
    90   45  107 1    
    91   46   47 1    
    92   46  108 1    
    93   46  109 1    
    94   47   48 1    
    95   48  110 1    
    96   48  111 1    
    97   49   50 am   BACKBONE|DICT|INTERRES
    98   49  112 1    
    99   50   51 2    
   100   50   52 1    
   101   52   53 1    
   102   52   54 1    
   103   52  113 1    
   104   53  114 1    
   105   53  115 1    
   106   53  116 1    
   107   54   55 am   BACKBONE|DICT|INTERRES
   108   54  117 1    
   109   55   56 2    
   110   55   57 1    
   111   57   58 1    
   112   57   59 1    
   113   57  118 1    
   114   58  119 1    
   115   58  120 1    
   116   58  121 1    
   117   59   60 am   BACKBONE|DICT|INTERRES
   118   59  122 1    
   119   60   61 2    
   120   60   62 1    
   121   62   63 1    
   122   62   64 1    
   123   62  123 1    
   124   63  124 1    
   125   63  125 1    
   126   63  126 1    
   127   64   65 am   BACKBONE|DICT|INTERRES
   128   64  127 1    
   129   65   66 2    
@<TRIPOS>SUBSTRUCTURE
     1 UNK         1 GROUP             0       ****    0 ROOT    
