@<TRIPOS>MOLECULE
3R134
127   129    1
SMALL
USER_CHARGES


@<TRIPOS>ATOM
      1 CA         36.9526  -43.6504  -51.0142 C.3       0 UNK        -0.1968 
      2 C          37.2537  -44.3934  -52.3074 C.2       0 UNK         0.4852 
      3 O          38.4228  -44.5880  -52.6430 O.2       0 UNK        -0.5359 
      4 N          36.2080  -44.8121  -53.0329 N.am      1 UNK        -0.4300 
      5 CA         36.3023  -45.5484  -54.3004 C.3       1 UNK         0.0863 
      6 C6         35.0557  -45.3246  -55.1956 C.3       11 UNK        -0.0953 
      7 S7         33.4508  -45.7198  -54.4096 S.3       11 UNK        -0.2369 
      8 C8         32.7991  -44.0525  -54.0696 C.3       11 UNK         0.0226 
      9 C9         31.2795  -44.0443  -54.0179 C.ar      11 UNK        -0.0699 
     10 C10        30.6033  -44.1815  -52.8010 C.ar      11 UNK        -0.0804 
     11 C11        29.2054  -44.1349  -52.7586 C.ar      11 UNK        -0.0871 
     12 C12        28.4869  -43.9682  -53.9462 C.ar      11 UNK        -0.1008 
     13 C13        29.1522  -43.8329  -55.1678 C.ar      11 UNK        -0.0735 
     14 C14        30.5486  -43.8663  -55.1961 C.ar      11 UNK        -0.0945 
     15 C15        28.3592  -43.6555  -56.4532 C.3       11 UNK         0.0169 
     16 S16        27.4766  -42.0650  -56.4619 S.3       11 UNK        -0.2669 
     17 C17        26.7494  -42.0317  -58.1343 C.3       11 UNK        -0.0850 
     18 CA         25.3455  -42.7075  -58.1851 C.3       10 UNK         0.0855 
     19 C          24.4401  -42.1743  -59.3417 C.2       10 UNK         0.5543 
     20 N          23.5188  -42.9684  -59.8740 N.am      10 UNK        -0.7343 
     21 O          24.5420  -41.0162  -59.7398 O.2       10 UNK        -0.5027 
     22 N          25.4302  -44.1794  -58.0930 N.am      10 UNK        -0.4495 
     23 C          25.9425  -44.9935  -59.0272 C.2       10 UNK         0.4903 
     24 O          26.4061  -44.6032  -60.0998 O.2       10 UNK        -0.4860 
     25 CA         25.8995  -46.4972  -58.7061 C.3       9 UNK         0.0227 
     26 CB         25.4989  -47.3406  -59.9335 C.3       9 UNK        -0.1964 
     27 N          27.1449  -46.9978  -58.1147 N.am      9 UNK        -0.4231 
     28 C          28.3757  -47.0424  -58.6528 C.2       9 UNK         0.5014 
     29 O          28.6886  -46.5609  -59.7415 O.2       9 UNK        -0.5270 
     30 CA         29.4409  -47.8214  -57.8582 C.3       8 UNK         0.0284 
     31 CB         30.0641  -46.9524  -56.7559 C.3       8 UNK        -0.1977 
     32 N          28.9126  -49.0530  -57.2687 N.am      8 UNK        -0.4342 
     33 C          28.4514  -50.1051  -57.9613 C.2       8 UNK         0.5039 
     34 O          28.5030  -50.2019  -59.1879 O.2       8 UNK        -0.5547 
     35 CA         27.7986  -51.2303  -57.1451 C.3       7 UNK         0.0281 
     36 CB         28.8613  -52.1805  -56.5676 C.3       7 UNK        -0.1963 
     37 N          26.9679  -50.6885  -56.0669 N.am      7 UNK        -0.4444 
     38 C          25.7239  -50.2177  -56.2385 C.2       7 UNK         0.5104 
     39 O          25.1168  -50.2618  -57.3083 O.2       7 UNK        -0.5100 
     40 CA         25.0329  -49.5881  -55.0144 C.3       6 UNK         0.0396 
     41 CB         24.1748  -50.6357  -54.2878 C.3       6 UNK        -0.1801 
     42 N          25.9686  -48.9854  -54.0614 N.am      6 UNK        -0.4747 
     43 C          26.6630  -47.8593  -54.2826 C.2       6 UNK         0.5012 
     44 O          26.5681  -47.1889  -55.3110 O.2       6 UNK        -0.5003 
     45 CA         27.6790  -47.4501  -53.1968 C.3       5 UNK         0.0782 
     46 C46        27.0116  -46.5593  -52.1223 C.3       11 UNK        -0.0868 
     47 S47        28.2191  -45.9498  -50.8954 S.3       11 UNK        -0.2515 
     48 C48        28.4710  -44.2279  -51.4281 C.3       11 UNK         0.0199 
     49 N          28.3723  -48.6007  -52.6018 N.am      5 UNK        -0.4607 
     50 C          29.1336  -49.4629  -53.2818 C.2       4 UNK         0.5031 
     51 O          29.2461  -49.4540  -54.5090 O.2       4 UNK        -0.5119 
     52 CA         29.8539  -50.5465  -52.4680 C.3       4 UNK         0.0263 
     53 CB         29.0349  -51.8474  -52.4661 C.3       4 UNK        -0.1967 
     54 N          31.1789  -50.8055  -53.0324 N.am      4 UNK        -0.4237 
     55 C          32.1988  -49.9415  -52.9625 C.2       3 UNK         0.4908 
     56 O          32.1758  -48.8988  -52.3013 O.2       3 UNK        -0.5102 
     57 CA         33.4417  -50.2918  -53.7866 C.3       3 UNK         0.0241 
     58 CB         33.2285  -49.9432  -55.2713 C.3       3 UNK        -0.1971 
     59 N          34.5649  -49.5205  -53.2679 N.am      3 UNK        -0.4139 
     60 C          35.8221  -49.9505  -53.1257 C.2       2 UNK         0.5016 
     61 O          36.2077  -51.0696  -53.4708 O.2       2 UNK        -0.5319 
     62 CA         36.8052  -48.9530  -52.4782 C.3       2 UNK         0.0286 
     63 CB         38.2855  -49.3374  -52.6924 C.3       2 UNK        -0.1963 
     64 N          36.5599  -47.5595  -52.8815 N.am      2 UNK        -0.4790 
     65 C          36.6305  -47.0488  -54.1231 C.2       1 UNK         0.5024 
     66 O          36.9432  -47.7078  -55.1159 O.2       1 UNK        -0.4888 
     67 H67        37.3837  -44.1822  -50.1664 H         1 UNK         0.0892 
     68 H68        37.3869  -42.6515  -51.0463 H         1 UNK         0.0892 
     69 H69        35.8814  -43.5481  -50.8412 H         1 UNK         0.0892 
     70 H70        35.2689  -44.6342  -52.7073 H         1 UNK         0.3107 
     71 H71        37.1516  -45.1371  -54.8510 H         1 UNK         0.0773 
     72 H72        35.0477  -44.2884  -55.5349 H         1 UNK         0.0680 
     73 H73        35.1324  -45.9137  -56.1115 H         1 UNK         0.0680 
     74 H74        33.1270  -43.3543  -54.8408 H         1 UNK         0.0650 
     75 H75        33.2142  -43.6861  -53.1299 H         1 UNK         0.0650 
     76 H76        31.1644  -44.3124  -51.8857 H         1 UNK         0.1397 
     77 H77        27.4065  -43.9273  -53.9246 H         1 UNK         0.1363 
     78 H78        31.0710  -43.7564  -56.1365 H         1 UNK         0.1355 
     79 H79        29.0110  -43.7163  -57.3262 H         1 UNK         0.0707 
     80 H80        27.6459  -44.4751  -56.5365 H         1 UNK         0.0707 
     81 H81        27.4359  -42.4755  -58.8565 H         1 UNK         0.1034 
     82 H82        26.6860  -40.9768  -58.4060 H         1 UNK         0.1034 
     83 H83        24.8078  -42.3971  -57.2884 H         1 UNK         0.0482 
     84 H84        23.4126  -43.9160  -59.5500 H         1 UNK         0.3460 
     85 H85        22.9289  -42.6161  -60.6113 H         1 UNK         0.3460 
     86 H86        25.0528  -44.5844  -57.2482 H         1 UNK         0.2989 
     87 H87        25.1292  -46.6534  -57.9490 H         1 UNK         0.0559 
     88 H88        26.2304  -47.2643  -60.7387 H         1 UNK         0.0848 
     89 H89        24.5395  -47.0130  -60.3353 H         1 UNK         0.0848 
     90 H90        25.4000  -48.3945  -59.6718 H         1 UNK         0.0848 
     91 H91        27.0436  -47.3403  -57.1625 H         1 UNK         0.3144 
     92 H92        30.2336  -48.1047  -58.5538 H         1 UNK         0.0727 
     93 H93        30.8573  -47.4832  -56.2284 H         1 UNK         0.0790 
     94 H94        29.3239  -46.6447  -56.0175 H         1 UNK         0.0790 
     95 H95        30.5051  -46.0493  -57.1784 H         1 UNK         0.0790 
     96 H96        28.9116  -49.1103  -56.2511 H         1 UNK         0.3215 
     97 H97        27.1638  -51.8091  -57.8202 H         1 UNK         0.0863 
     98 H98        29.5613  -51.6643  -55.9108 H         1 UNK         0.0808 
     99 H99        29.4467  -52.6355  -57.3676 H         1 UNK         0.0808 
    100 H100       28.4030  -52.9916  -56.0017 H         1 UNK         0.0808 
    101 H101       27.4171  -50.5523  -55.1719 H         1 UNK         0.3118 
    102 H102       24.3696  -48.8014  -55.3808 H         1 UNK         0.0546 
    103 H103       23.6141  -50.1898  -53.4661 H         1 UNK         0.0828 
    104 H104       24.7814  -51.4460  -53.8816 H         1 UNK         0.0828 
    105 H105       23.4479  -51.0830  -54.9674 H         1 UNK         0.0828 
    106 H106       26.1149  -49.4744  -53.1897 H         1 UNK         0.3005 
    107 H107       28.4426  -46.8540  -53.7016 H         1 UNK         0.1257 
    108 H108       26.2421  -47.1188  -51.5872 H         1 UNK         0.0775 
    109 H109       26.4997  -45.7111  -52.5799 H         1 UNK         0.0775 
    110 H110       27.5082  -43.7172  -51.4825 H         1 UNK         0.0840 
    111 H111       29.0431  -43.7052  -50.6601 H         1 UNK         0.0840 
    112 H112       28.3330  -48.6647  -51.5946 H         1 UNK         0.2987 
    113 H113       29.9743  -50.2027  -51.4382 H         1 UNK         0.0785 
    114 H114       29.5255  -52.6229  -51.8776 H         1 UNK         0.0798 
    115 H115       28.0482  -51.6882  -52.0290 H         1 UNK         0.0798 
    116 H116       28.8857  -52.2365  -53.4739 H         1 UNK         0.0798 
    117 H117       31.2680  -51.6197  -53.6223 H         1 UNK         0.3079 
    118 H118       33.6378  -51.3610  -53.6803 H         1 UNK         0.0794 
    119 H119       32.3890  -50.4977  -55.6928 H         1 UNK         0.0786 
    120 H120       34.1102  -50.1863  -55.8645 H         1 UNK         0.0786 
    121 H121       33.0182  -48.8811  -55.4071 H         1 UNK         0.0786 
    122 H122       34.3102  -48.6102  -52.9055 H         1 UNK         0.3032 
    123 H123       36.6101  -49.0014  -51.4055 H         1 UNK         0.1094 
    124 H124       38.5445  -49.3855  -53.7505 H         1 UNK         0.0794 
    125 H125       38.9545  -48.6212  -52.2153 H         1 UNK         0.0794 
    126 H126       38.5010  -50.3162  -52.2622 H         1 UNK         0.0794 
    127 H127       36.2935  -46.9281  -52.1390 H         1 UNK         0.3016 
@<TRIPOS>BOND
     1    1    2 1    
     2    1   67 1    
     3    1   68 1    
     4    1   69 1    
     5    2    3 2    
     6    2    4 am   BACKBONE|DICT|INTERRES
     7    4    5 1    
     8    4   70 1    
     9    5    6 1    
    10    5   65 1    
    11    5   71 1    
    12    6    7 1    
    13    6   72 1    
    14    6   73 1    
    15    7    8 1    
    16    8    9 1    
    17    8   74 1    
    18    8   75 1    
    19    9   10 ar   
    20    9   14 ar   
    21   10   11 ar   
    22   10   76 1    
    23   11   12 ar   
    24   11   48 1    
    25   12   13 ar   
    26   12   77 1    
    27   13   14 ar   
    28   13   15 1    
    29   14   78 1    
    30   15   16 1    
    31   15   79 1    
    32   15   80 1    
    33   16   17 1    
    34   17   18 1    
    35   17   81 1    
    36   17   82 1    
    37   18   19 1    
    38   18   22 1    
    39   18   83 1    
    40   19   20 am   BACKBONE|DICT|INTERRES
    41   19   21 2    
    42   20   84 1    
    43   20   85 1    
    44   22   23 am   BACKBONE|DICT|INTERRES
    45   22   86 1    
    46   23   24 2    
    47   23   25 1    
    48   25   26 1    
    49   25   27 1    
    50   25   87 1    
    51   26   88 1    
    52   26   89 1    
    53   26   90 1    
    54   27   28 am   BACKBONE|DICT|INTERRES
    55   27   91 1    
    56   28   29 2    
    57   28   30 1    
    58   30   31 1    
    59   30   32 1    
    60   30   92 1    
    61   31   93 1    
    62   31   94 1    
    63   31   95 1    
    64   32   33 am   BACKBONE|DICT|INTERRES
    65   32   96 1    
    66   33   34 2    
    67   33   35 1    
    68   35   36 1    
    69   35   37 1    
    70   35   97 1    
    71   36   98 1    
    72   36   99 1    
    73   36  100 1    
    74   37   38 am   BACKBONE|DICT|INTERRES
    75   37  101 1    
    76   38   39 2    
    77   38   40 1    
    78   40   41 1    
    79   40   42 1    
    80   40  102 1    
    81   41  103 1    
    82   41  104 1    
    83   41  105 1    
    84   42   43 am   BACKBONE|DICT|INTERRES
    85   42  106 1    
    86   43   44 2    
    87   43   45 1    
    88   45   46 1    
    89   45   49 1    
    90   45  107 1    
    91   46   47 1    
    92   46  108 1    
    93   46  109 1    
    94   47   48 1    
    95   48  110 1    
    96   48  111 1    
    97   49   50 am   BACKBONE|DICT|INTERRES
    98   49  112 1    
    99   50   51 2    
   100   50   52 1    
   101   52   53 1    
   102   52   54 1    
   103   52  113 1    
   104   53  114 1    
   105   53  115 1    
   106   53  116 1    
   107   54   55 am   BACKBONE|DICT|INTERRES
   108   54  117 1    
   109   55   56 2    
   110   55   57 1    
   111   57   58 1    
   112   57   59 1    
   113   57  118 1    
   114   58  119 1    
   115   58  120 1    
   116   58  121 1    
   117   59   60 am   BACKBONE|DICT|INTERRES
   118   59  122 1    
   119   60   61 2    
   120   60   62 1    
   121   62   63 1    
   122   62   64 1    
   123   62  123 1    
   124   63  124 1    
   125   63  125 1    
   126   63  126 1    
   127   64   65 am   BACKBONE|DICT|INTERRES
   128   64  127 1    
   129   65   66 2    
@<TRIPOS>SUBSTRUCTURE
     1 UNK         1 GROUP             0       ****    0 ROOT    
