@<TRIPOS>MOLECULE
3R134
127   129    1
SMALL
USER_CHARGES


@<TRIPOS>ATOM
      1 CA         29.6399  -49.6076  -51.3222 C.3       0 UNK        -0.1968 
      2 C          30.4651  -48.6546  -50.4712 C.2       0 UNK         0.4852 
      3 O          30.0300  -48.2747  -49.3831 O.2       0 UNK        -0.5359 
      4 N          31.6424  -48.2642  -50.9673 N.am      1 UNK        -0.4300 
      5 CA         32.5832  -47.3582  -50.3080 C.3       1 UNK         0.0863 
      6 C6         32.4819  -45.9025  -50.8489 C.3       11 UNK        -0.0953 
      7 S7         32.6246  -45.7424  -52.6647 S.3       11 UNK        -0.2369 
      8 C8         32.6011  -43.9292  -52.8388 C.3       11 UNK         0.0226 
      9 C9         32.0714  -43.4997  -54.2004 C.ar      11 UNK        -0.0699 
     10 C10        32.7513  -43.8632  -55.3668 C.ar      11 UNK        -0.0804 
     11 C11        32.2488  -43.5039  -56.6209 C.ar      11 UNK        -0.0871 
     12 C12        31.0969  -42.7217  -56.7015 C.ar      11 UNK        -0.1008 
     13 C13        30.4004  -42.3594  -55.5469 C.ar      11 UNK        -0.0735 
     14 C14        30.8929  -42.7500  -54.2975 C.ar      11 UNK        -0.0945 
     15 C15        29.1074  -41.5646  -55.6588 C.3       11 UNK         0.0169 
     16 S16        27.6725  -42.6492  -55.9539 S.3       11 UNK        -0.2669 
     17 C17        27.9920  -43.2306  -57.6585 C.3       11 UNK        -0.0850 
     18 CA         26.7103  -43.6746  -58.4081 C.3       10 UNK         0.0855 
     19 C          27.0064  -44.0353  -59.8950 C.2       10 UNK         0.5543 
     20 N          26.5828  -45.1847  -60.4100 N.am      10 UNK        -0.7343 
     21 O          27.6214  -43.2440  -60.6055 O.2       10 UNK        -0.5027 
     22 N          25.9918  -44.7276  -57.6773 N.am      10 UNK        -0.4495 
     23 C          24.6632  -44.8818  -57.6845 C.2       10 UNK         0.4903 
     24 O          23.8870  -44.1209  -58.2654 O.2       10 UNK        -0.4860 
     25 CA         24.1180  -46.0974  -56.9143 C.3       9 UNK         0.0227 
     26 CB         22.6412  -46.4060  -57.2412 C.3       9 UNK        -0.1964 
     27 N          24.9452  -47.2993  -57.0722 N.am      9 UNK        -0.4231 
     28 C          25.2345  -47.9561  -58.2078 C.2       9 UNK         0.5014 
     29 O          24.8800  -47.5649  -59.3211 O.2       9 UNK        -0.5270 
     30 CA         26.0637  -49.2577  -58.1064 C.3       8 UNK         0.0284 
     31 CB         27.1831  -49.2932  -59.1628 C.3       8 UNK        -0.1977 
     32 N          26.6594  -49.4835  -56.7877 N.am      8 UNK        -0.4342 
     33 C          26.0152  -49.8780  -55.6819 C.2       8 UNK         0.5039 
     34 O          24.8320  -50.2160  -55.6608 O.2       8 UNK        -0.5547 
     35 CA         26.8065  -49.7990  -54.3645 C.3       7 UNK         0.0281 
     36 CB         27.4881  -51.1422  -54.0540 C.3       7 UNK        -0.1963 
     37 N          27.7914  -48.7061  -54.3668 N.am      7 UNK        -0.4444 
     38 C          27.4710  -47.4019  -54.3776 C.2       7 UNK         0.5104 
     39 O          26.3116  -46.9900  -54.3437 O.2       7 UNK        -0.5100 
     40 CA         28.6223  -46.3848  -54.4717 C.3       6 UNK         0.0396 
     41 CB         29.0917  -45.9768  -53.0693 C.3       6 UNK        -0.1801 
     42 N          29.7582  -46.8656  -55.2665 N.am      6 UNK        -0.4747 
     43 C          29.7375  -46.9608  -56.6062 C.2       6 UNK         0.5012 
     44 O          28.7708  -46.6236  -57.2915 O.2       6 UNK        -0.5003 
     45 CA         30.9574  -47.6304  -57.2857 C.3       5 UNK         0.0782 
     46 C46        32.1680  -46.6809  -57.4550 C.3       11 UNK        -0.0868 
     47 S47        31.9259  -45.3364  -58.6617 S.3       11 UNK        -0.2515 
     48 C48        32.9074  -44.0002  -57.8979 C.3       11 UNK         0.0199 
     49 N          31.3957  -48.8380  -56.5819 N.am      5 UNK        -0.4607 
     50 C          30.6575  -49.9108  -56.2782 C.2       4 UNK         0.5031 
     51 O          29.4762  -50.0242  -56.5979 O.2       4 UNK        -0.5119 
     52 CA         31.3358  -51.0393  -55.4713 C.3       4 UNK         0.0263 
     53 CB         31.1795  -52.3915  -56.1872 C.3       4 UNK        -0.1967 
     54 N          32.7602  -50.8059  -55.1955 N.am      4 UNK        -0.4237 
     55 C          33.2449  -49.9211  -54.3143 C.2       3 UNK         0.4908 
     56 O          32.5349  -49.2254  -53.5792 O.2       3 UNK        -0.5102 
     57 CA         34.7705  -49.7462  -54.3068 C.3       3 UNK         0.0241 
     58 CB         35.2828  -49.1793  -55.6452 C.3       3 UNK        -0.1971 
     59 N          35.1191  -48.8244  -53.2360 N.am      3 UNK        -0.4139 
     60 C          36.2197  -48.8519  -52.4770 C.2       2 UNK         0.5016 
     61 O          37.1577  -49.6307  -52.6523 O.2       2 UNK        -0.5319 
     62 CA         36.2789  -47.8396  -51.3142 C.3       2 UNK         0.0286 
     63 CB         37.2184  -46.6735  -51.6620 C.3       2 UNK        -0.1963 
     64 N          34.9597  -47.2997  -50.9626 N.am      2 UNK        -0.4790 
     65 C          33.9783  -48.0044  -50.3826 C.2       1 UNK         0.5024 
     66 O          34.1367  -49.1462  -49.9458 O.2       1 UNK        -0.4888 
     67 H67        29.4992  -50.5525  -50.7981 H         1 UNK         0.0892 
     68 H68        28.6585  -49.1773  -51.5201 H         1 UNK         0.0892 
     69 H69        30.1196  -49.8176  -52.2780 H         1 UNK         0.0892 
     70 H70        31.9566  -48.6292  -51.8645 H         1 UNK         0.3107 
     71 H71        32.3584  -47.3189  -49.2400 H         1 UNK         0.0773 
     72 H72        31.5103  -45.4946  -50.5654 H         1 UNK         0.0680 
     73 H73        33.2178  -45.2564  -50.3666 H         1 UNK         0.0680 
     74 H74        31.9901  -43.4977  -52.0445 H         1 UNK         0.0650 
     75 H75        33.6109  -43.5412  -52.6994 H         1 UNK         0.0650 
     76 H76        33.6493  -44.4616  -55.2947 H         1 UNK         0.1397 
     77 H77        30.7210  -42.4345  -57.6731 H         1 UNK         0.1363 
     78 H78        30.3520  -42.4769  -53.4018 H         1 UNK         0.1355 
     79 H79        28.9364  -41.0002  -54.7409 H         1 UNK         0.0707 
     80 H80        29.1837  -40.8263  -56.4585 H         1 UNK         0.0707 
     81 H81        28.4700  -42.4189  -58.2092 H         1 UNK         0.1034 
     82 H82        28.7165  -44.0451  -57.6218 H         1 UNK         0.1034 
     83 H83        26.0630  -42.7968  -58.4546 H         1 UNK         0.0482 
     84 H84        26.7813  -45.3912  -61.3756 H         1 UNK         0.3460 
     85 H85        26.0445  -45.8397  -59.8570 H         1 UNK         0.3460 
     86 H86        26.5697  -45.4126  -57.2095 H         1 UNK         0.2989 
     87 H87        24.1710  -45.8320  -55.8575 H         1 UNK         0.0559 
     88 H88        22.0011  -45.5559  -57.0023 H         1 UNK         0.0848 
     89 H89        22.2764  -47.2560  -56.6646 H         1 UNK         0.0848 
     90 H90        22.4994  -46.6320  -58.2987 H         1 UNK         0.0848 
     91 H91        25.3262  -47.6646  -56.2079 H         1 UNK         0.3144 
     92 H92        25.3796  -50.0830  -58.3128 H         1 UNK         0.0727 
     93 H93        27.8751  -48.4592  -59.0435 H         1 UNK         0.0790 
     94 H94        26.7749  -49.2357  -60.1726 H         1 UNK         0.0790 
     95 H95        27.7592  -50.2167  -59.1006 H         1 UNK         0.0790 
     96 H96        27.6603  -49.3205  -56.7134 H         1 UNK         0.3215 
     97 H97        26.0890  -49.5956  -53.5663 H         1 UNK         0.0863 
     98 H98        28.0019  -51.1210  -53.0943 H         1 UNK         0.0808 
     99 H99        28.2098  -51.4253  -54.8190 H         1 UNK         0.0808 
    100 H100       26.7497  -51.9434  -54.0012 H         1 UNK         0.0808 
    101 H101       28.7619  -48.9617  -54.4652 H         1 UNK         0.3118 
    102 H102       28.2236  -45.4907  -54.9555 H         1 UNK         0.0546 
    103 H103       29.6170  -46.7862  -52.5656 H         1 UNK         0.0828 
    104 H104       28.2493  -45.6883  -52.4391 H         1 UNK         0.0828 
    105 H105       29.7601  -45.1192  -53.1161 H         1 UNK         0.0828 
    106 H106       30.5865  -47.1569  -54.7661 H         1 UNK         0.3005 
    107 H107       30.6290  -47.9482  -58.2779 H         1 UNK         0.1257 
    108 H108       32.4613  -46.2811  -56.4851 H         1 UNK         0.0775 
    109 H109       33.0322  -47.2465  -57.8078 H         1 UNK         0.0775 
    110 H110       33.9215  -44.3540  -57.7052 H         1 UNK         0.0840 
    111 H111       32.9990  -43.1751  -58.6058 H         1 UNK         0.0840 
    112 H112       32.3529  -48.8391  -56.2669 H         1 UNK         0.2987 
    113 H113       30.8118  -51.1014  -54.5154 H         1 UNK         0.0785 
    114 H114       30.1280  -52.6280  -56.3572 H         1 UNK         0.0798 
    115 H115       31.5979  -53.2054  -55.5948 H         1 UNK         0.0798 
    116 H116       31.6739  -52.3931  -57.1594 H         1 UNK         0.0798 
    117 H117       33.4131  -51.3306  -55.7608 H         1 UNK         0.3079 
    118 H118       35.2231  -50.7217  -54.1160 H         1 UNK         0.0794 
    119 H119       36.3638  -49.0390  -55.6229 H         1 UNK         0.0786 
    120 H120       34.8300  -48.2137  -55.8743 H         1 UNK         0.0786 
    121 H121       35.0677  -49.8512  -56.4767 H         1 UNK         0.0786 
    122 H122       34.3748  -48.1875  -52.9828 H         1 UNK         0.3032 
    123 H123       36.6822  -48.3646  -50.4452 H         1 UNK         0.1094 
    124 H124       36.8604  -46.1091  -52.5241 H         1 UNK         0.0794 
    125 H125       37.3201  -45.9821  -50.8252 H         1 UNK         0.0794 
    126 H126       38.2185  -47.0369  -51.9029 H         1 UNK         0.0794 
    127 H127       34.7390  -46.3751  -51.3080 H         1 UNK         0.3016 
@<TRIPOS>BOND
     1    1    2 1    
     2    1   67 1    
     3    1   68 1    
     4    1   69 1    
     5    2    3 2    
     6    2    4 am   BACKBONE|DICT|INTERRES
     7    4    5 1    
     8    4   70 1    
     9    5    6 1    
    10    5   65 1    
    11    5   71 1    
    12    6    7 1    
    13    6   72 1    
    14    6   73 1    
    15    7    8 1    
    16    8    9 1    
    17    8   74 1    
    18    8   75 1    
    19    9   10 ar   
    20    9   14 ar   
    21   10   11 ar   
    22   10   76 1    
    23   11   12 ar   
    24   11   48 1    
    25   12   13 ar   
    26   12   77 1    
    27   13   14 ar   
    28   13   15 1    
    29   14   78 1    
    30   15   16 1    
    31   15   79 1    
    32   15   80 1    
    33   16   17 1    
    34   17   18 1    
    35   17   81 1    
    36   17   82 1    
    37   18   19 1    
    38   18   22 1    
    39   18   83 1    
    40   19   20 am   BACKBONE|DICT|INTERRES
    41   19   21 2    
    42   20   84 1    
    43   20   85 1    
    44   22   23 am   BACKBONE|DICT|INTERRES
    45   22   86 1    
    46   23   24 2    
    47   23   25 1    
    48   25   26 1    
    49   25   27 1    
    50   25   87 1    
    51   26   88 1    
    52   26   89 1    
    53   26   90 1    
    54   27   28 am   BACKBONE|DICT|INTERRES
    55   27   91 1    
    56   28   29 2    
    57   28   30 1    
    58   30   31 1    
    59   30   32 1    
    60   30   92 1    
    61   31   93 1    
    62   31   94 1    
    63   31   95 1    
    64   32   33 am   BACKBONE|DICT|INTERRES
    65   32   96 1    
    66   33   34 2    
    67   33   35 1    
    68   35   36 1    
    69   35   37 1    
    70   35   97 1    
    71   36   98 1    
    72   36   99 1    
    73   36  100 1    
    74   37   38 am   BACKBONE|DICT|INTERRES
    75   37  101 1    
    76   38   39 2    
    77   38   40 1    
    78   40   41 1    
    79   40   42 1    
    80   40  102 1    
    81   41  103 1    
    82   41  104 1    
    83   41  105 1    
    84   42   43 am   BACKBONE|DICT|INTERRES
    85   42  106 1    
    86   43   44 2    
    87   43   45 1    
    88   45   46 1    
    89   45   49 1    
    90   45  107 1    
    91   46   47 1    
    92   46  108 1    
    93   46  109 1    
    94   47   48 1    
    95   48  110 1    
    96   48  111 1    
    97   49   50 am   BACKBONE|DICT|INTERRES
    98   49  112 1    
    99   50   51 2    
   100   50   52 1    
   101   52   53 1    
   102   52   54 1    
   103   52  113 1    
   104   53  114 1    
   105   53  115 1    
   106   53  116 1    
   107   54   55 am   BACKBONE|DICT|INTERRES
   108   54  117 1    
   109   55   56 2    
   110   55   57 1    
   111   57   58 1    
   112   57   59 1    
   113   57  118 1    
   114   58  119 1    
   115   58  120 1    
   116   58  121 1    
   117   59   60 am   BACKBONE|DICT|INTERRES
   118   59  122 1    
   119   60   61 2    
   120   60   62 1    
   121   62   63 1    
   122   62   64 1    
   123   62  123 1    
   124   63  124 1    
   125   63  125 1    
   126   63  126 1    
   127   64   65 am   BACKBONE|DICT|INTERRES
   128   64  127 1    
   129   65   66 2    
@<TRIPOS>SUBSTRUCTURE
     1 UNK         1 GROUP             0       ****    0 ROOT    
