@<TRIPOS>MOLECULE
3R134
127   129    1
SMALL
USER_CHARGES


@<TRIPOS>ATOM
      1 CA         33.5243  -46.0871  -49.4322 C.3       0 UNK        -0.1968 
      2 C          34.4695  -46.0791  -50.6243 C.2       0 UNK         0.4852 
      3 O          35.6055  -46.5432  -50.5093 O.2       0 UNK        -0.5359 
      4 N          34.0114  -45.5441  -51.7624 N.am      1 UNK        -0.4300 
      5 CA         34.7591  -45.4890  -53.0229 C.3       1 UNK         0.0863 
      6 C6         34.1757  -44.4271  -53.9915 C.3       11 UNK        -0.0953 
      7 S7         34.2224  -42.7431  -53.2963 S.3       11 UNK        -0.2369 
      8 C8         32.8770  -41.9293  -54.2289 C.3       11 UNK         0.0226 
      9 C9         31.4818  -42.5041  -53.9808 C.ar      11 UNK        -0.0699 
     10 C10        31.1181  -43.0404  -52.7396 C.ar      11 UNK        -0.0804 
     11 C11        29.8415  -43.5695  -52.5346 C.ar      11 UNK        -0.0871 
     12 C12        28.9074  -43.5343  -53.5734 C.ar      11 UNK        -0.1008 
     13 C13        29.2426  -42.9680  -54.8078 C.ar      11 UNK        -0.0735 
     14 C14        30.5325  -42.4662  -55.0085 C.ar      11 UNK        -0.0945 
     15 C15        28.1978  -42.8731  -55.9098 C.3       11 UNK         0.0169 
     16 S16        28.2769  -44.3037  -57.0272 S.3       11 UNK        -0.2669 
     17 C17        29.2638  -43.6866  -58.4419 C.3       11 UNK        -0.0850 
     18 CA         28.6190  -44.0550  -59.8123 C.3       10 UNK         0.0855 
     19 C          29.3636  -43.4193  -61.0259 C.2       10 UNK         0.5543 
     20 N          29.3760  -44.0502  -62.1935 N.am      10 UNK        -0.7343 
     21 O          29.9082  -42.3228  -60.9214 O.2       10 UNK        -0.5027 
     22 N          28.3301  -45.4973  -59.9302 N.am      10 UNK        -0.4495 
     23 C          29.2190  -46.4976  -59.9856 C.2       10 UNK         0.4903 
     24 O          30.4347  -46.3382  -60.1017 O.2       10 UNK        -0.4860 
     25 CA         28.6346  -47.9149  -59.8187 C.3       9 UNK         0.0227 
     26 CB         29.6605  -49.0233  -60.1182 C.3       9 UNK        -0.1964 
     27 N          28.1188  -48.0862  -58.4561 N.am      9 UNK        -0.4231 
     28 C          26.9464  -47.5983  -58.0251 C.2       9 UNK         0.5014 
     29 O          26.1138  -47.0778  -58.7731 O.2       9 UNK        -0.5270 
     30 CA         26.6913  -47.6662  -56.5102 C.3       8 UNK         0.0284 
     31 CB         25.4495  -46.8632  -56.0677 C.3       8 UNK        -0.1977 
     32 N          26.6282  -49.0389  -56.0099 N.am      8 UNK        -0.4342 
     33 C          25.7605  -50.0093  -56.3317 C.2       8 UNK         0.5039 
     34 O          24.8569  -49.8957  -57.1605 O.2       8 UNK        -0.5547 
     35 CA         25.9171  -51.3349  -55.5697 C.3       7 UNK         0.0281 
     36 CB         27.0098  -52.2008  -56.2196 C.3       7 UNK        -0.1963 
     37 N          26.2590  -51.0930  -54.1656 N.am      7 UNK        -0.4444 
     38 C          25.3806  -51.0242  -53.1570 C.2       7 UNK         0.5104 
     39 O          24.1767  -51.2535  -53.2794 O.2       7 UNK        -0.5100 
     40 CA         25.9330  -50.6376  -51.7695 C.3       6 UNK         0.0396 
     41 CB         26.3268  -51.8968  -50.9810 C.3       6 UNK        -0.1801 
     42 N          27.0796  -49.7242  -51.8256 N.am      6 UNK        -0.4747 
     43 C          27.0124  -48.4368  -52.1986 C.2       6 UNK         0.5012 
     44 O          25.9558  -47.8632  -52.4626 O.2       6 UNK        -0.5003 
     45 CA         28.3402  -47.6484  -52.3033 C.3       5 UNK         0.0782 
     46 C46        28.5771  -46.8582  -50.9919 C.3       11 UNK        -0.0868 
     47 S47        30.1057  -45.8562  -51.0107 S.3       11 UNK        -0.2515 
     48 C48        29.4775  -44.1547  -51.1797 C.3       11 UNK         0.0199 
     49 N          29.5292  -48.4335  -52.6799 N.am      5 UNK        -0.4607 
     50 C          29.6402  -49.3159  -53.6799 C.2       4 UNK         0.5031 
     51 O          28.6897  -49.7261  -54.3418 O.2       4 UNK        -0.5119 
     52 CA         31.0572  -49.7983  -54.0148 C.3       4 UNK         0.0263 
     53 CB         31.0678  -51.2457  -54.5498 C.3       4 UNK        -0.1967 
     54 N          31.7150  -48.8894  -54.9588 N.am      4 UNK        -0.4237 
     55 C          31.3202  -48.5504  -56.2006 C.2       3 UNK         0.4908 
     56 O          30.2898  -48.9547  -56.7421 O.2       3 UNK        -0.5102 
     57 CA         32.2136  -47.5699  -56.9863 C.3       3 UNK         0.0241 
     58 CB         31.5860  -46.1694  -56.9471 C.3       3 UNK        -0.1971 
     59 N          33.5877  -47.4709  -56.4939 N.am      3 UNK        -0.4139 
     60 C          34.4930  -48.4578  -56.4341 C.2       2 UNK         0.5016 
     61 O          34.3405  -49.5627  -56.9550 O.2       2 UNK        -0.5319 
     62 CA         35.7679  -48.1756  -55.6091 C.3       2 UNK         0.0286 
     63 CB         36.9791  -47.9882  -56.5374 C.3       2 UNK        -0.1963 
     64 N          35.6684  -47.0128  -54.7106 N.am      2 UNK        -0.4790 
     65 C          34.7822  -46.8685  -53.7124 C.2       1 UNK         0.5024 
     66 O          33.9538  -47.7335  -53.4126 O.2       1 UNK        -0.4888 
     67 H67        32.7327  -45.3466  -49.5418 H         1 UNK         0.0892 
     68 H68        33.0641  -47.0687  -49.3237 H         1 UNK         0.0892 
     69 H69        34.0680  -45.8606  -48.5153 H         1 UNK         0.0892 
     70 H70        33.0585  -45.2144  -51.8068 H         1 UNK         0.3107 
     71 H71        35.7924  -45.2173  -52.7950 H         1 UNK         0.0773 
     72 H72        34.7340  -44.3992  -54.9290 H         1 UNK         0.0680 
     73 H73        33.1476  -44.6819  -54.2549 H         1 UNK         0.0680 
     74 H74        33.1210  -41.9811  -55.2913 H         1 UNK         0.0650 
     75 H75        32.8649  -40.8713  -53.9648 H         1 UNK         0.0650 
     76 H76        31.8289  -43.0529  -51.9255 H         1 UNK         0.1397 
     77 H77        27.9138  -43.9320  -53.4171 H         1 UNK         0.1363 
     78 H78        30.7922  -42.0350  -55.9656 H         1 UNK         0.1355 
     79 H79        27.2007  -42.8401  -55.4680 H         1 UNK         0.0707 
     80 H80        28.3065  -41.9388  -56.4620 H         1 UNK         0.0707 
     81 H81        30.2744  -44.0886  -58.3770 H         1 UNK         0.1034 
     82 H82        29.3721  -42.6044  -58.3584 H         1 UNK         0.1034 
     83 H83        27.6386  -43.5779  -59.8302 H         1 UNK         0.0482 
     84 H84        28.9317  -44.9495  -62.2877 H         1 UNK         0.3460 
     85 H85        29.8487  -43.6322  -62.9792 H         1 UNK         0.3460 
     86 H86        27.3596  -45.7574  -59.7911 H         1 UNK         0.2989 
     87 H87        27.8143  -48.0247  -60.5311 H         1 UNK         0.0559 
     88 H88        30.5185  -48.9766  -59.4475 H         1 UNK         0.0848 
     89 H89        30.0397  -48.9372  -61.1372 H         1 UNK         0.0848 
     90 H90        29.2145  -50.0130  -60.0199 H         1 UNK         0.0848 
     91 H91        28.7752  -48.4665  -57.7752 H         1 UNK         0.3144 
     92 H92        27.5596  -47.2107  -56.0307 H         1 UNK         0.0727 
     93 H93        25.3317  -46.8810  -54.9845 H         1 UNK         0.0790 
     94 H94        24.5331  -47.2531  -56.5115 H         1 UNK         0.0790 
     95 H95        25.5367  -45.8181  -56.3672 H         1 UNK         0.0790 
     96 H96        27.3811  -49.2907  -55.3674 H         1 UNK         0.3215 
     97 H97        24.9706  -51.8766  -55.6329 H         1 UNK         0.0863 
     98 H98        27.9840  -51.7100  -56.1989 H         1 UNK         0.0808 
     99 H99        26.7718  -52.4082  -57.2638 H         1 UNK         0.0808 
    100 H100       27.1080  -53.1605  -55.7121 H         1 UNK         0.0808 
    101 H101       27.2187  -50.8097  -53.9855 H         1 UNK         0.3118 
    102 H102       25.1298  -50.1367  -51.2245 H         1 UNK         0.0546 
    103 H103       26.6398  -51.6492  -49.9666 H         1 UNK         0.0828 
    104 H104       27.1420  -52.4381  -51.4631 H         1 UNK         0.0828 
    105 H105       25.4837  -52.5844  -50.8988 H         1 UNK         0.0828 
    106 H106       27.9892  -50.1157  -51.6268 H         1 UNK         0.3005 
    107 H107       28.1952  -46.9235  -53.1076 H         1 UNK         0.1257 
    108 H108       28.6572  -47.5487  -50.1497 H         1 UNK         0.0775 
    109 H109       27.7202  -46.2207  -50.7672 H         1 UNK         0.0775 
    110 H110       28.3993  -44.1100  -51.0218 H         1 UNK         0.0840 
    111 H111       29.9161  -43.5426  -50.3898 H         1 UNK         0.0840 
    112 H112       30.3736  -48.1554  -52.1998 H         1 UNK         0.2987 
    113 H113       31.6454  -49.7803  -53.0959 H         1 UNK         0.0785 
    114 H114       32.0854  -51.5897  -54.7349 H         1 UNK         0.0798 
    115 H115       30.6175  -51.9300  -53.8299 H         1 UNK         0.0798 
    116 H116       30.5096  -51.3436  -55.4816 H         1 UNK         0.0798 
    117 H117       32.5581  -48.4530  -54.5974 H         1 UNK         0.3079 
    118 H118       32.2499  -47.9116  -58.0225 H         1 UNK         0.0794 
    119 H119       30.5554  -46.2051  -57.2992 H         1 UNK         0.0786 
    120 H120       32.1253  -45.4736  -57.5898 H         1 UNK         0.0786 
    121 H121       31.5641  -45.7559  -55.9378 H         1 UNK         0.0786 
    122 H122       33.8403  -46.5961  -56.0613 H         1 UNK         0.3032 
    123 H123       35.9419  -49.0576  -54.9886 H         1 UNK         0.1094 
    124 H124       36.8714  -47.1054  -57.1689 H         1 UNK         0.0794 
    125 H125       37.9040  -47.8862  -55.9694 H         1 UNK         0.0794 
    126 H126       37.1021  -48.8477  -57.1981 H         1 UNK         0.0794 
    127 H127       36.3114  -46.2550  -54.8958 H         1 UNK         0.3016 
@<TRIPOS>BOND
     1    1    2 1    
     2    1   67 1    
     3    1   68 1    
     4    1   69 1    
     5    2    3 2    
     6    2    4 am   BACKBONE|DICT|INTERRES
     7    4    5 1    
     8    4   70 1    
     9    5    6 1    
    10    5   65 1    
    11    5   71 1    
    12    6    7 1    
    13    6   72 1    
    14    6   73 1    
    15    7    8 1    
    16    8    9 1    
    17    8   74 1    
    18    8   75 1    
    19    9   10 ar   
    20    9   14 ar   
    21   10   11 ar   
    22   10   76 1    
    23   11   12 ar   
    24   11   48 1    
    25   12   13 ar   
    26   12   77 1    
    27   13   14 ar   
    28   13   15 1    
    29   14   78 1    
    30   15   16 1    
    31   15   79 1    
    32   15   80 1    
    33   16   17 1    
    34   17   18 1    
    35   17   81 1    
    36   17   82 1    
    37   18   19 1    
    38   18   22 1    
    39   18   83 1    
    40   19   20 am   BACKBONE|DICT|INTERRES
    41   19   21 2    
    42   20   84 1    
    43   20   85 1    
    44   22   23 am   BACKBONE|DICT|INTERRES
    45   22   86 1    
    46   23   24 2    
    47   23   25 1    
    48   25   26 1    
    49   25   27 1    
    50   25   87 1    
    51   26   88 1    
    52   26   89 1    
    53   26   90 1    
    54   27   28 am   BACKBONE|DICT|INTERRES
    55   27   91 1    
    56   28   29 2    
    57   28   30 1    
    58   30   31 1    
    59   30   32 1    
    60   30   92 1    
    61   31   93 1    
    62   31   94 1    
    63   31   95 1    
    64   32   33 am   BACKBONE|DICT|INTERRES
    65   32   96 1    
    66   33   34 2    
    67   33   35 1    
    68   35   36 1    
    69   35   37 1    
    70   35   97 1    
    71   36   98 1    
    72   36   99 1    
    73   36  100 1    
    74   37   38 am   BACKBONE|DICT|INTERRES
    75   37  101 1    
    76   38   39 2    
    77   38   40 1    
    78   40   41 1    
    79   40   42 1    
    80   40  102 1    
    81   41  103 1    
    82   41  104 1    
    83   41  105 1    
    84   42   43 am   BACKBONE|DICT|INTERRES
    85   42  106 1    
    86   43   44 2    
    87   43   45 1    
    88   45   46 1    
    89   45   49 1    
    90   45  107 1    
    91   46   47 1    
    92   46  108 1    
    93   46  109 1    
    94   47   48 1    
    95   48  110 1    
    96   48  111 1    
    97   49   50 am   BACKBONE|DICT|INTERRES
    98   49  112 1    
    99   50   51 2    
   100   50   52 1    
   101   52   53 1    
   102   52   54 1    
   103   52  113 1    
   104   53  114 1    
   105   53  115 1    
   106   53  116 1    
   107   54   55 am   BACKBONE|DICT|INTERRES
   108   54  117 1    
   109   55   56 2    
   110   55   57 1    
   111   57   58 1    
   112   57   59 1    
   113   57  118 1    
   114   58  119 1    
   115   58  120 1    
   116   58  121 1    
   117   59   60 am   BACKBONE|DICT|INTERRES
   118   59  122 1    
   119   60   61 2    
   120   60   62 1    
   121   62   63 1    
   122   62   64 1    
   123   62  123 1    
   124   63  124 1    
   125   63  125 1    
   126   63  126 1    
   127   64   65 am   BACKBONE|DICT|INTERRES
   128   64  127 1    
   129   65   66 2    
@<TRIPOS>SUBSTRUCTURE
     1 UNK         1 GROUP             0       ****    0 ROOT    
