@<TRIPOS>MOLECULE
3R134
127   129    1
SMALL
USER_CHARGES


@<TRIPOS>ATOM
      1 CA         29.3602  -43.4652  -50.9226 C.3       0 UNK        -0.1968 
      2 C          30.7085  -43.9504  -50.4088 C.2       0 UNK         0.4852 
      3 O          31.4192  -43.1942  -49.7454 O.2       0 UNK        -0.5359 
      4 N          31.0614  -45.2019  -50.7142 N.am      1 UNK        -0.4300 
      5 CA         32.3072  -45.8711  -50.3461 C.3       1 UNK         0.0863 
      6 C6         33.5608  -45.2895  -51.0643 C.3       11 UNK        -0.0953 
      7 S7         33.5063  -45.4351  -52.8821 S.3       11 UNK        -0.2369 
      8 C8         33.2323  -43.7046  -53.3863 C.3       11 UNK         0.0226 
      9 C9         32.7300  -43.5809  -54.8219 C.ar      11 UNK        -0.0699 
     10 C10        33.3565  -44.2727  -55.8640 C.ar      11 UNK        -0.0804 
     11 C11        32.8920  -44.1613  -57.1778 C.ar      11 UNK        -0.0871 
     12 C12        31.8043  -43.3284  -57.4542 C.ar      11 UNK        -0.1008 
     13 C13        31.1846  -42.6089  -56.4275 C.ar      11 UNK        -0.0735 
     14 C14        31.6444  -42.7477  -55.1135 C.ar      11 UNK        -0.0945 
     15 C15        30.0484  -41.6468  -56.7475 C.3       11 UNK         0.0169 
     16 S16        28.4889  -42.5093  -57.1082 S.3       11 UNK        -0.2669 
     17 C17        28.0649  -43.1768  -55.4606 C.3       11 UNK        -0.0850 
     18 CA         26.6779  -43.8791  -55.3964 C.3       10 UNK         0.0855 
     19 C          25.5258  -42.8451  -55.2366 C.2       10 UNK         0.5543 
     20 N          25.2855  -42.3744  -54.0201 N.am      10 UNK        -0.7343 
     21 O          24.8748  -42.4417  -56.1991 O.2       10 UNK        -0.5027 
     22 N          26.4795  -44.8027  -56.5245 N.am      10 UNK        -0.4495 
     23 C          25.4584  -45.6584  -56.6586 C.2       10 UNK         0.4903 
     24 O          24.6355  -45.8939  -55.7731 O.2       10 UNK        -0.4860 
     25 CA         25.3038  -46.3519  -58.0189 C.3       9 UNK         0.0227 
     26 CB         25.8805  -45.5414  -59.1988 C.3       9 UNK        -0.1964 
     27 N          25.9423  -47.6646  -57.9725 N.am      9 UNK        -0.4231 
     28 C          25.3339  -48.8267  -58.2430 C.2       9 UNK         0.5014 
     29 O          24.1426  -48.9298  -58.5408 O.2       9 UNK        -0.5270 
     30 CA         26.2010  -50.0961  -58.2001 C.3       8 UNK         0.0284 
     31 CB         27.0368  -50.2204  -59.4848 C.3       8 UNK        -0.1977 
     32 N          27.0823  -50.1529  -57.0333 N.am      8 UNK        -0.4342 
     33 C          26.6715  -50.3594  -55.7739 C.2       8 UNK         0.5039 
     34 O          25.4991  -50.5671  -55.4586 O.2       8 UNK        -0.5547 
     35 CA         27.7509  -50.3172  -54.6770 C.3       7 UNK         0.0281 
     36 CB         28.5136  -51.6493  -54.5979 C.3       7 UNK        -0.1963 
     37 N          28.6925  -49.2142  -54.8770 N.am      7 UNK        -0.4444 
     38 C          28.3638  -47.9210  -54.7594 C.2       7 UNK         0.5104 
     39 O          27.2717  -47.5271  -54.3530 O.2       7 UNK        -0.5100 
     40 CA         29.4129  -46.8870  -55.1886 C.3       6 UNK         0.0396 
     41 CB         30.2657  -46.4393  -53.9987 C.3       6 UNK        -0.1801 
     42 N          30.2736  -47.3562  -56.2739 N.am      6 UNK        -0.4747 
     43 C          29.8808  -47.4276  -57.5525 C.2       6 UNK         0.5012 
     44 O          28.7618  -47.0879  -57.9377 O.2       6 UNK        -0.5003 
     45 CA         30.8715  -48.0367  -58.5642 C.3       5 UNK         0.0782 
     46 C46        31.8392  -46.9756  -59.1562 C.3       11 UNK        -0.0868 
     47 S47        33.3596  -46.7077  -58.1748 S.3       11 UNK        -0.2515 
     48 C48        33.6031  -44.9086  -58.2956 C.3       11 UNK         0.0199 
     49 N          31.5763  -49.2042  -58.0251 N.am      5 UNK        -0.4607 
     50 C          30.9983  -50.3484  -57.6419 C.2       4 UNK         0.5031 
     51 O          29.7975  -50.5805  -57.7672 O.2       4 UNK        -0.5119 
     52 CA         31.9021  -51.3873  -56.9562 C.3       4 UNK         0.0263 
     53 CB         32.5568  -52.3025  -58.0026 C.3       4 UNK        -0.1967 
     54 N          32.9381  -50.7967  -56.0997 N.am      4 UNK        -0.4237 
     55 C          32.7005  -50.0139  -55.0374 C.2       3 UNK         0.4908 
     56 O          31.5725  -49.6654  -54.6824 O.2       3 UNK        -0.5102 
     57 CA         33.9387  -49.4840  -54.2950 C.3       3 UNK         0.0241 
     58 CB         34.4605  -48.2135  -54.9845 C.3       3 UNK        -0.1971 
     59 N          33.6686  -49.1888  -52.8844 N.am      3 UNK        -0.4139 
     60 C          33.4001  -50.1114  -51.9484 C.2       2 UNK         0.5016 
     61 O          33.3660  -51.3213  -52.1810 O.2       2 UNK        -0.5319 
     62 CA         33.1730  -49.6316  -50.4991 C.3       2 UNK         0.0286 
     63 CB         34.2415  -50.2203  -49.5608 C.3       2 UNK        -0.1963 
     64 N          33.1692  -48.1727  -50.3396 N.am      2 UNK        -0.4790 
     65 C          32.1113  -47.3853  -50.5714 C.2       1 UNK         0.5024 
     66 O          31.0181  -47.8137  -50.9522 O.2       1 UNK        -0.4888 
     67 H67        28.8244  -44.2447  -51.4639 H         1 UNK         0.0892 
     68 H68        28.7360  -43.1405  -50.0905 H         1 UNK         0.0892 
     69 H69        29.4990  -42.6196  -51.5957 H         1 UNK         0.0892 
     70 H70        30.4223  -45.8197  -51.1993 H         1 UNK         0.3107 
     71 H71        32.4397  -45.7396  -49.2703 H         1 UNK         0.0773 
     72 H72        33.6929  -44.2418  -50.7916 H         1 UNK         0.0680 
     73 H73        34.4682  -45.7830  -50.7140 H         1 UNK         0.0680 
     74 H74        34.1656  -43.1500  -53.2829 H         1 UNK         0.0650 
     75 H75        32.5184  -43.2474  -52.7004 H         1 UNK         0.0650 
     76 H76        34.2058  -44.9078  -55.6525 H         1 UNK         0.1397 
     77 H77        31.4482  -43.2223  -58.4699 H         1 UNK         0.1363 
     78 H78        31.1655  -42.1925  -54.3187 H         1 UNK         0.1355 
     79 H79        30.3233  -41.0458  -57.6155 H         1 UNK         0.0707 
     80 H80        29.8921  -40.9417  -55.9296 H         1 UNK         0.0707 
     81 H81        28.8485  -43.8758  -55.1744 H         1 UNK         0.1034 
     82 H82        28.1286  -42.3732  -54.7240 H         1 UNK         0.1034 
     83 H83        26.6703  -44.4974  -54.4962 H         1 UNK         0.0482 
     84 H84        25.8096  -42.6944  -53.2208 H         1 UNK         0.3460 
     85 H85        24.5520  -41.6941  -53.8961 H         1 UNK         0.3460 
     86 H86        27.0966  -44.6570  -57.3102 H         1 UNK         0.2989 
     87 H87        24.2298  -46.4528  -58.1883 H         1 UNK         0.0559 
     88 H88        26.9678  -45.4671  -59.1621 H         1 UNK         0.0848 
     89 H89        25.4778  -44.5275  -59.2135 H         1 UNK         0.0848 
     90 H90        25.6186  -46.0034  -60.1507 H         1 UNK         0.0848 
     91 H91        26.9360  -47.6610  -57.7555 H         1 UNK         0.3144 
     92 H92        25.5285  -50.9554  -58.1533 H         1 UNK         0.0727 
     93 H93        27.5885  -51.1604  -59.5085 H         1 UNK         0.0790 
     94 H94        27.7584  -49.4079  -59.5780 H         1 UNK         0.0790 
     95 H95        26.3998  -50.1959  -60.3700 H         1 UNK         0.0790 
     96 H96        28.0823  -50.0868  -57.2140 H         1 UNK         0.3215 
     97 H97        27.2493  -50.1582  -53.7198 H         1 UNK         0.0863 
     98 H98        29.2865  -51.6207  -53.8292 H         1 UNK         0.0808 
     99 H99        28.9908  -51.9009  -55.5444 H         1 UNK         0.0808 
    100 H100       27.8368  -52.4678  -54.3497 H         1 UNK         0.0808 
    101 H101       29.6524  -49.4476  -55.1148 H         1 UNK         0.3118 
    102 H102       28.8633  -46.0215  -55.5534 H         1 UNK         0.0546 
    103 H103       29.6364  -46.1165  -53.1697 H         1 UNK         0.0828 
    104 H104       30.8980  -45.5977  -54.2733 H         1 UNK         0.0828 
    105 H105       30.9075  -47.2420  -53.6348 H         1 UNK         0.0828 
    106 H106       31.1858  -47.7083  -56.0194 H         1 UNK         0.3005 
    107 H107       30.2543  -48.4013  -59.3889 H         1 UNK         0.1257 
    108 H108       31.3262  -46.0254  -59.3193 H         1 UNK         0.0775 
    109 H109       32.1595  -47.3031  -60.1464 H         1 UNK         0.0775 
    110 H110       34.6718  -44.6992  -58.2318 H         1 UNK         0.0840 
    111 H111       33.2860  -44.5535  -59.2774 H         1 UNK         0.0840 
    112 H112       32.5684  -49.0845  -57.8796 H         1 UNK         0.2987 
    113 H113       31.2659  -52.0031  -56.3180 H         1 UNK         0.0785 
    114 H114       31.8026  -52.7690  -58.6382 H         1 UNK         0.0798 
    115 H115       33.1205  -53.1071  -57.5299 H         1 UNK         0.0798 
    116 H116       33.2367  -51.7521  -58.6542 H         1 UNK         0.0798 
    117 H117       33.8953  -51.0205  -56.3322 H         1 UNK         0.3079 
    118 H118       34.7194  -50.2469  -54.3294 H         1 UNK         0.0794 
    119 H119       33.6865  -47.4483  -55.0569 H         1 UNK         0.0786 
    120 H120       34.7975  -48.4287  -55.9990 H         1 UNK         0.0786 
    121 H121       35.3082  -47.7850  -54.4494 H         1 UNK         0.0786 
    122 H122       33.6449  -48.2155  -52.6181 H         1 UNK         0.3032 
    123 H123       32.2004  -50.0224  -50.1899 H         1 UNK         0.1094 
    124 H124       35.2436  -49.8814  -49.8266 H         1 UNK         0.0794 
    125 H125       34.0558  -49.9423  -48.5231 H         1 UNK         0.0794 
    126 H126       34.2450  -51.3105  -49.6035 H         1 UNK         0.0794 
    127 H127       34.0353  -47.7519  -50.0333 H         1 UNK         0.3016 
@<TRIPOS>BOND
     1    1    2 1    
     2    1   67 1    
     3    1   68 1    
     4    1   69 1    
     5    2    3 2    
     6    2    4 am   BACKBONE|DICT|INTERRES
     7    4    5 1    
     8    4   70 1    
     9    5    6 1    
    10    5   65 1    
    11    5   71 1    
    12    6    7 1    
    13    6   72 1    
    14    6   73 1    
    15    7    8 1    
    16    8    9 1    
    17    8   74 1    
    18    8   75 1    
    19    9   10 ar   
    20    9   14 ar   
    21   10   11 ar   
    22   10   76 1    
    23   11   12 ar   
    24   11   48 1    
    25   12   13 ar   
    26   12   77 1    
    27   13   14 ar   
    28   13   15 1    
    29   14   78 1    
    30   15   16 1    
    31   15   79 1    
    32   15   80 1    
    33   16   17 1    
    34   17   18 1    
    35   17   81 1    
    36   17   82 1    
    37   18   19 1    
    38   18   22 1    
    39   18   83 1    
    40   19   20 am   BACKBONE|DICT|INTERRES
    41   19   21 2    
    42   20   84 1    
    43   20   85 1    
    44   22   23 am   BACKBONE|DICT|INTERRES
    45   22   86 1    
    46   23   24 2    
    47   23   25 1    
    48   25   26 1    
    49   25   27 1    
    50   25   87 1    
    51   26   88 1    
    52   26   89 1    
    53   26   90 1    
    54   27   28 am   BACKBONE|DICT|INTERRES
    55   27   91 1    
    56   28   29 2    
    57   28   30 1    
    58   30   31 1    
    59   30   32 1    
    60   30   92 1    
    61   31   93 1    
    62   31   94 1    
    63   31   95 1    
    64   32   33 am   BACKBONE|DICT|INTERRES
    65   32   96 1    
    66   33   34 2    
    67   33   35 1    
    68   35   36 1    
    69   35   37 1    
    70   35   97 1    
    71   36   98 1    
    72   36   99 1    
    73   36  100 1    
    74   37   38 am   BACKBONE|DICT|INTERRES
    75   37  101 1    
    76   38   39 2    
    77   38   40 1    
    78   40   41 1    
    79   40   42 1    
    80   40  102 1    
    81   41  103 1    
    82   41  104 1    
    83   41  105 1    
    84   42   43 am   BACKBONE|DICT|INTERRES
    85   42  106 1    
    86   43   44 2    
    87   43   45 1    
    88   45   46 1    
    89   45   49 1    
    90   45  107 1    
    91   46   47 1    
    92   46  108 1    
    93   46  109 1    
    94   47   48 1    
    95   48  110 1    
    96   48  111 1    
    97   49   50 am   BACKBONE|DICT|INTERRES
    98   49  112 1    
    99   50   51 2    
   100   50   52 1    
   101   52   53 1    
   102   52   54 1    
   103   52  113 1    
   104   53  114 1    
   105   53  115 1    
   106   53  116 1    
   107   54   55 am   BACKBONE|DICT|INTERRES
   108   54  117 1    
   109   55   56 2    
   110   55   57 1    
   111   57   58 1    
   112   57   59 1    
   113   57  118 1    
   114   58  119 1    
   115   58  120 1    
   116   58  121 1    
   117   59   60 am   BACKBONE|DICT|INTERRES
   118   59  122 1    
   119   60   61 2    
   120   60   62 1    
   121   62   63 1    
   122   62   64 1    
   123   62  123 1    
   124   63  124 1    
   125   63  125 1    
   126   63  126 1    
   127   64   65 am   BACKBONE|DICT|INTERRES
   128   64  127 1    
   129   65   66 2    
@<TRIPOS>SUBSTRUCTURE
     1 UNK         1 GROUP             0       ****    0 ROOT    
