@<TRIPOS>MOLECULE
3R134
127   129    1
SMALL
USER_CHARGES


@<TRIPOS>ATOM
      1 CA         29.5659  -48.1096  -50.4616 C.3       0 UNK        -0.1968 
      2 C          30.8292  -47.3477  -50.0876 C.2       0 UNK         0.4852 
      3 O          31.2746  -47.4215  -48.9414 O.2       0 UNK        -0.5359 
      4 N          31.4088  -46.6246  -51.0520 N.am      1 UNK        -0.4300 
      5 CA         32.7013  -45.9435  -50.9409 C.3       1 UNK         0.0863 
      6 C6         32.7944  -44.7030  -51.8676 C.3       11 UNK        -0.0953 
      7 S7         31.4745  -43.4722  -51.5917 S.3       11 UNK        -0.2369 
      8 C8         31.9295  -42.1093  -52.7216 C.3       11 UNK         0.0226 
      9 C9         31.9389  -42.5075  -54.1958 C.ar      11 UNK        -0.0699 
     10 C10        33.1297  -42.9437  -54.7812 C.ar      11 UNK        -0.0804 
     11 C11        33.1663  -43.3294  -56.1242 C.ar      11 UNK        -0.0871 
     12 C12        32.0134  -43.2184  -56.9028 C.ar      11 UNK        -0.1008 
     13 C13        30.8151  -42.7717  -56.3389 C.ar      11 UNK        -0.0735 
     14 C14        30.7816  -42.4195  -54.9821 C.ar      11 UNK        -0.0945 
     15 C15        29.5721  -42.6758  -57.2149 C.3       11 UNK         0.0169 
     16 S16        28.9991  -44.3271  -57.7308 S.3       11 UNK        -0.2669 
     17 C17        27.8958  -43.9391  -59.1306 C.3       11 UNK        -0.0850 
     18 CA         26.4000  -43.7975  -58.7421 C.3       10 UNK         0.0855 
     19 C          25.5501  -43.4861  -60.0098 C.2       10 UNK         0.5543 
     20 N          24.7193  -44.4030  -60.4923 N.am      10 UNK        -0.7343 
     21 O          25.6517  -42.3940  -60.5629 O.2       10 UNK        -0.5027 
     22 N          25.9174  -44.9374  -57.9423 N.am      10 UNK        -0.4495 
     23 C          24.7602  -44.9632  -57.2669 C.2       10 UNK         0.4903 
     24 O          23.9909  -44.0029  -57.2085 O.2       10 UNK        -0.4860 
     25 CA         24.3980  -46.2510  -56.4998 C.3       9 UNK         0.0227 
     26 CB         22.9221  -46.6528  -56.7076 C.3       9 UNK        -0.1964 
     27 N          25.2969  -47.3915  -56.7319 N.am      9 UNK        -0.4231 
     28 C          25.4599  -48.1085  -57.8561 C.2       9 UNK         0.5014 
     29 O          24.8654  -47.8604  -58.9061 O.2       9 UNK        -0.5270 
     30 CA         26.4756  -49.2736  -57.8334 C.3       8 UNK         0.0284 
     31 CB         27.4709  -49.1546  -59.0019 C.3       8 UNK        -0.1977 
     32 N          27.2378  -49.3681  -56.5850 N.am      8 UNK        -0.4342 
     33 C          26.8061  -49.9086  -55.4367 C.2       8 UNK         0.5039 
     34 O          25.7305  -50.4950  -55.3174 O.2       8 UNK        -0.5547 
     35 CA         27.6939  -49.6871  -54.1960 C.3       7 UNK         0.0281 
     36 CB         28.7322  -50.8082  -54.0498 C.3       7 UNK        -0.1963 
     37 N          28.3747  -48.3878  -54.2246 N.am      7 UNK        -0.4444 
     38 C          27.7526  -47.2029  -54.1798 C.2       7 UNK         0.5104 
     39 O          26.5391  -47.0925  -54.0106 O.2       7 UNK        -0.5100 
     40 CA         28.5737  -45.9264  -54.4334 C.3       6 UNK         0.0396 
     41 CB         28.7798  -45.1304  -53.1384 C.3       6 UNK        -0.1801 
     42 N          29.8242  -46.1107  -55.1870 N.am      6 UNK        -0.4747 
     43 C          30.9414  -46.7724  -54.8578 C.2       6 UNK         0.5012 
     44 O          31.1232  -47.3049  -53.7626 O.2       6 UNK        -0.5003 
     45 CA         31.9955  -46.9391  -55.9763 C.3       5 UNK         0.0782 
     46 C46        33.3731  -46.3493  -55.5857 C.3       11 UNK        -0.0868 
     47 S47        34.2699  -45.7247  -57.0496 S.3       11 UNK        -0.2515 
     48 C48        34.4360  -43.9337  -56.7091 C.3       11 UNK         0.0199 
     49 N          32.1529  -48.3467  -56.3514 N.am      5 UNK        -0.4607 
     50 C          31.1859  -49.1842  -56.7472 C.2       4 UNK         0.5031 
     51 O          30.0093  -48.8556  -56.8950 O.2       4 UNK        -0.5119 
     52 CA         31.5996  -50.6414  -56.9888 C.3       4 UNK         0.0263 
     53 CB         32.2995  -50.7910  -58.3497 C.3       4 UNK        -0.1967 
     54 N          32.4828  -51.1171  -55.9175 N.am      4 UNK        -0.4237 
     55 C          32.2321  -52.1645  -55.1211 C.2       3 UNK         0.4908 
     56 O          31.2559  -52.9050  -55.2450 O.2       3 UNK        -0.5102 
     57 CA         33.2438  -52.4525  -53.9941 C.3       3 UNK         0.0241 
     58 CB         34.2560  -53.5183  -54.4461 C.3       3 UNK        -0.1971 
     59 N          33.9715  -51.2753  -53.5009 N.am      3 UNK        -0.4139 
     60 C          33.4140  -50.2495  -52.8416 C.2       2 UNK         0.5016 
     61 O          32.2048  -50.1658  -52.6137 O.2       2 UNK        -0.5319 
     62 CA         34.3572  -49.1360  -52.3488 C.3       2 UNK         0.0286 
     63 CB         35.5241  -48.8402  -53.3162 C.3       2 UNK        -0.1963 
     64 N          33.5552  -47.9395  -52.1022 N.am      2 UNK        -0.4790 
     65 C          33.8362  -46.9491  -51.2419 C.2       1 UNK         0.5024 
     66 O          34.9181  -46.8337  -50.6651 O.2       1 UNK        -0.4888 
     67 H67        28.6938  -47.6429  -50.0049 H         1 UNK         0.0892 
     68 H68        29.4158  -48.1383  -51.5404 H         1 UNK         0.0892 
     69 H69        29.6297  -49.1386  -50.1089 H         1 UNK         0.0892 
     70 H70        31.0389  -46.6747  -51.9973 H         1 UNK         0.3107 
     71 H71        32.8323  -45.6009  -49.9122 H         1 UNK         0.0773 
     72 H72        32.7215  -45.0185  -52.9027 H         1 UNK         0.0680 
     73 H73        33.7604  -44.2082  -51.7521 H         1 UNK         0.0680 
     74 H74        32.9068  -41.7209  -52.4308 H         1 UNK         0.0650 
     75 H75        31.2257  -41.2892  -52.5731 H         1 UNK         0.0650 
     76 H76        34.0222  -43.0233  -54.1756 H         1 UNK         0.1397 
     77 H77        32.0391  -43.5154  -57.9427 H         1 UNK         0.1363 
     78 H78        29.8581  -42.0749  -54.5379 H         1 UNK         0.1355 
     79 H79        29.8090  -42.0746  -58.0938 H         1 UNK         0.0707 
     80 H80        28.7630  -42.1627  -56.6928 H         1 UNK         0.0707 
     81 H81        28.2503  -43.0315  -59.6230 H         1 UNK         0.1034 
     82 H82        28.0145  -44.7370  -59.8663 H         1 UNK         0.1034 
     83 H83        26.3189  -42.9160  -58.1030 H         1 UNK         0.0482 
     84 H84        24.1715  -44.1944  -61.3119 H         1 UNK         0.3460 
     85 H85        24.6383  -45.3030  -60.0433 H         1 UNK         0.3460 
     86 H86        26.4984  -45.7612  -57.9424 H         1 UNK         0.2989 
     87 H87        24.5147  -46.0006  -55.4448 H         1 UNK         0.0559 
     88 H88        22.6960  -46.8454  -57.7567 H         1 UNK         0.0848 
     89 H89        22.6705  -47.5482  -56.1394 H         1 UNK         0.0848 
     90 H90        22.2496  -45.8616  -56.3741 H         1 UNK         0.0848 
     91 H91        25.8355  -47.6630  -55.9173 H         1 UNK         0.3144 
     92 H92        25.9066  -50.1962  -57.9638 H         1 UNK         0.0727 
     93 H93        28.1713  -49.9901  -59.0122 H         1 UNK         0.0790 
     94 H94        28.0526  -48.2335  -58.9429 H         1 UNK         0.0790 
     95 H95        26.9554  -49.1556  -59.9632 H         1 UNK         0.0790 
     96 H96        28.1801  -48.9793  -56.6058 H         1 UNK         0.3215 
     97 H97        27.0460  -49.7049  -53.3169 H         1 UNK         0.0863 
     98 H98        29.3478  -50.6710  -53.1602 H         1 UNK         0.0808 
     99 H99        29.3972  -50.8536  -54.9108 H         1 UNK         0.0808 
    100 H100       28.2472  -51.7813  -53.9635 H         1 UNK         0.0808 
    101 H101       29.3798  -48.3889  -54.3484 H         1 UNK         0.3118 
    102 H102       27.9487  -45.3087  -55.0799 H         1 UNK         0.0546 
    103 H103       27.8256  -44.9205  -52.6535 H         1 UNK         0.0828 
    104 H104       29.2521  -44.1716  -53.3406 H         1 UNK         0.0828 
    105 H105       29.3905  -45.6679  -52.4202 H         1 UNK         0.0828 
    106 H106       29.7821  -45.7168  -56.1201 H         1 UNK         0.3005 
    107 H107       31.6207  -46.4099  -56.8557 H         1 UNK         0.1257 
    108 H108       33.9916  -47.0888  -55.0823 H         1 UNK         0.0775 
    109 H109       33.2769  -45.5527  -54.8607 H         1 UNK         0.0775 
    110 H110       35.2792  -43.7841  -56.0330 H         1 UNK         0.0840 
    111 H111       34.6931  -43.4168  -57.6347 H         1 UNK         0.0840 
    112 H112       33.0977  -48.6907  -56.3104 H         1 UNK         0.2987 
    113 H113       30.6816  -51.2325  -57.0176 H         1 UNK         0.0785 
    114 H114       33.2316  -50.2267  -58.3956 H         1 UNK         0.0798 
    115 H115       31.6599  -50.4336  -59.1581 H         1 UNK         0.0798 
    116 H116       32.5313  -51.8355  -58.5591 H         1 UNK         0.0798 
    117 H117       33.3146  -50.5802  -55.7285 H         1 UNK         0.3079 
    118 H118       32.6758  -52.8602  -53.1549 H         1 UNK         0.0794 
    119 H119       33.7466  -54.4196  -54.7907 H         1 UNK         0.0786 
    120 H120       34.9135  -53.8146  -53.6285 H         1 UNK         0.0786 
    121 H121       34.8788  -53.1625  -55.2679 H         1 UNK         0.0786 
    122 H122       34.9721  -51.2738  -53.6382 H         1 UNK         0.3032 
    123 H123       34.7687  -49.4686  -51.3931 H         1 UNK         0.1094 
    124 H124       36.0222  -47.9012  -53.0743 H         1 UNK         0.0794 
    125 H125       36.2836  -49.6203  -53.2578 H         1 UNK         0.0794 
    126 H126       35.1983  -48.7877  -54.3538 H         1 UNK         0.0794 
    127 H127       32.6228  -47.9839  -52.5063 H         1 UNK         0.3016 
@<TRIPOS>BOND
     1    1    2 1    
     2    1   67 1    
     3    1   68 1    
     4    1   69 1    
     5    2    3 2    
     6    2    4 am   BACKBONE|DICT|INTERRES
     7    4    5 1    
     8    4   70 1    
     9    5    6 1    
    10    5   65 1    
    11    5   71 1    
    12    6    7 1    
    13    6   72 1    
    14    6   73 1    
    15    7    8 1    
    16    8    9 1    
    17    8   74 1    
    18    8   75 1    
    19    9   10 ar   
    20    9   14 ar   
    21   10   11 ar   
    22   10   76 1    
    23   11   12 ar   
    24   11   48 1    
    25   12   13 ar   
    26   12   77 1    
    27   13   14 ar   
    28   13   15 1    
    29   14   78 1    
    30   15   16 1    
    31   15   79 1    
    32   15   80 1    
    33   16   17 1    
    34   17   18 1    
    35   17   81 1    
    36   17   82 1    
    37   18   19 1    
    38   18   22 1    
    39   18   83 1    
    40   19   20 am   BACKBONE|DICT|INTERRES
    41   19   21 2    
    42   20   84 1    
    43   20   85 1    
    44   22   23 am   BACKBONE|DICT|INTERRES
    45   22   86 1    
    46   23   24 2    
    47   23   25 1    
    48   25   26 1    
    49   25   27 1    
    50   25   87 1    
    51   26   88 1    
    52   26   89 1    
    53   26   90 1    
    54   27   28 am   BACKBONE|DICT|INTERRES
    55   27   91 1    
    56   28   29 2    
    57   28   30 1    
    58   30   31 1    
    59   30   32 1    
    60   30   92 1    
    61   31   93 1    
    62   31   94 1    
    63   31   95 1    
    64   32   33 am   BACKBONE|DICT|INTERRES
    65   32   96 1    
    66   33   34 2    
    67   33   35 1    
    68   35   36 1    
    69   35   37 1    
    70   35   97 1    
    71   36   98 1    
    72   36   99 1    
    73   36  100 1    
    74   37   38 am   BACKBONE|DICT|INTERRES
    75   37  101 1    
    76   38   39 2    
    77   38   40 1    
    78   40   41 1    
    79   40   42 1    
    80   40  102 1    
    81   41  103 1    
    82   41  104 1    
    83   41  105 1    
    84   42   43 am   BACKBONE|DICT|INTERRES
    85   42  106 1    
    86   43   44 2    
    87   43   45 1    
    88   45   46 1    
    89   45   49 1    
    90   45  107 1    
    91   46   47 1    
    92   46  108 1    
    93   46  109 1    
    94   47   48 1    
    95   48  110 1    
    96   48  111 1    
    97   49   50 am   BACKBONE|DICT|INTERRES
    98   49  112 1    
    99   50   51 2    
   100   50   52 1    
   101   52   53 1    
   102   52   54 1    
   103   52  113 1    
   104   53  114 1    
   105   53  115 1    
   106   53  116 1    
   107   54   55 am   BACKBONE|DICT|INTERRES
   108   54  117 1    
   109   55   56 2    
   110   55   57 1    
   111   57   58 1    
   112   57   59 1    
   113   57  118 1    
   114   58  119 1    
   115   58  120 1    
   116   58  121 1    
   117   59   60 am   BACKBONE|DICT|INTERRES
   118   59  122 1    
   119   60   61 2    
   120   60   62 1    
   121   62   63 1    
   122   62   64 1    
   123   62  123 1    
   124   63  124 1    
   125   63  125 1    
   126   63  126 1    
   127   64   65 am   BACKBONE|DICT|INTERRES
   128   64  127 1    
   129   65   66 2    
@<TRIPOS>SUBSTRUCTURE
     1 UNK         1 GROUP             0       ****    0 ROOT    
