@<TRIPOS>MOLECULE
3R134
127   129    1
SMALL
USER_CHARGES


@<TRIPOS>ATOM
      1 CA         30.0273  -48.7871  -49.8193 C.3       0 UNK        -0.1968 
      2 C          31.3474  -48.1173  -49.4648 C.2       0 UNK         0.4852 
      3 O          32.2418  -48.7745  -48.9328 O.2       0 UNK        -0.5359 
      4 N          31.4764  -46.8194  -49.7715 N.am      1 UNK        -0.4300 
      5 CA         32.6632  -45.9806  -49.5465 C.3       1 UNK         0.0863 
      6 C6         32.3832  -44.4782  -49.8364 C.3       11 UNK        -0.0953 
      7 S7         31.3702  -44.1786  -51.3283 S.3       11 UNK        -0.2369 
      8 C8         32.5777  -43.5183  -52.5232 C.3       11 UNK         0.0226 
      9 C9         32.0692  -43.5695  -53.9644 C.ar      11 UNK        -0.0699 
     10 C10        32.9190  -44.0121  -54.9840 C.ar      11 UNK        -0.0804 
     11 C11        32.4721  -44.0751  -56.3069 C.ar      11 UNK        -0.0871 
     12 C12        31.1714  -43.6760  -56.6102 C.ar      11 UNK        -0.1008 
     13 C13        30.2948  -43.2553  -55.6076 C.ar      11 UNK        -0.0735 
     14 C14        30.7602  -43.1871  -54.2894 C.ar      11 UNK        -0.0945 
     15 C15        28.8267  -42.9529  -55.9058 C.3       11 UNK         0.0169 
     16 S16        28.5236  -41.9931  -57.4314 S.3       11 UNK        -0.2669 
     17 C17        28.3480  -43.2755  -58.7271 C.3       11 UNK        -0.0850 
     18 CA         26.8863  -43.7524  -58.9125 C.3       10 UNK         0.0855 
     19 C          26.7193  -44.5223  -60.2469 C.2       10 UNK         0.5543 
     20 N          26.0471  -43.9336  -61.2260 N.am      10 UNK        -0.7343 
     21 O          27.2316  -45.6271  -60.4150 O.2       10 UNK        -0.5027 
     22 N          26.4819  -44.6155  -57.8006 N.am      10 UNK        -0.4495 
     23 C          25.2569  -44.6625  -57.2693 C.2       10 UNK         0.4903 
     24 O          24.3283  -43.9275  -57.6104 O.2       10 UNK        -0.4860 
     25 CA         25.0504  -45.7173  -56.1671 C.3       9 UNK         0.0227 
     26 CB         23.5903  -45.8115  -55.6753 C.3       9 UNK        -0.1964 
     27 N          25.5622  -47.0352  -56.5583 N.am      9 UNK        -0.4231 
     28 C          25.1566  -47.8032  -57.5833 C.2       9 UNK         0.5014 
     29 O          24.2341  -47.5050  -58.3432 O.2       9 UNK        -0.5270 
     30 CA         25.9023  -49.1335  -57.8181 C.3       8 UNK         0.0284 
     31 CB         26.7412  -49.0530  -59.1044 C.3       8 UNK        -0.1977 
     32 N          26.7770  -49.5283  -56.7116 N.am      8 UNK        -0.4342 
     33 C          26.3701  -49.9474  -55.5060 C.2       8 UNK         0.5039 
     34 O          25.1926  -50.1508  -55.2100 O.2       8 UNK        -0.5547 
     35 CA         27.4621  -50.1096  -54.4351 C.3       7 UNK         0.0281 
     36 CB         28.0862  -51.5139  -54.4839 C.3       7 UNK        -0.1963 
     37 N          28.5138  -49.0951  -54.5593 N.am      7 UNK        -0.4444 
     38 C          28.3508  -47.7924  -54.2859 C.2       7 UNK         0.5104 
     39 O          27.2963  -47.3020  -53.8856 O.2       7 UNK        -0.5100 
     40 CA         29.5633  -46.8817  -54.5258 C.3       6 UNK         0.0396 
     41 CB         30.5216  -46.9576  -53.3318 C.3       6 UNK        -0.1801 
     42 N          30.2812  -47.2280  -55.7514 N.am      6 UNK        -0.4747 
     43 C          29.8198  -47.0001  -56.9891 C.2       6 UNK         0.5012 
     44 O          28.7504  -46.4319  -57.2212 O.2       6 UNK        -0.5003 
     45 CA         30.6592  -47.5533  -58.1632 C.3       5 UNK         0.0782 
     46 C46        31.6932  -46.5210  -58.6907 C.3       11 UNK        -0.0868 
     47 S47        33.2118  -46.3756  -57.6693 S.3       11 UNK        -0.2515 
     48 C48        33.3857  -44.5796  -57.4132 C.3       11 UNK         0.0199 
     49 N          31.3020  -48.8371  -57.8637 N.am      5 UNK        -0.4607 
     50 C          30.7042  -49.9607  -57.4508 C.2       4 UNK         0.5031 
     51 O          29.4855  -50.0852  -57.3437 O.2       4 UNK        -0.5119 
     52 CA         31.6239  -51.1263  -57.0340 C.3       4 UNK         0.0263 
     53 CB         32.9800  -51.1230  -57.7749 C.3       4 UNK        -0.1967 
     54 N          31.8479  -51.2005  -55.5802 N.am      4 UNK        -0.4237 
     55 C          32.2693  -50.2149  -54.7708 C.2       3 UNK         0.4908 
     56 O          32.4095  -49.0472  -55.1391 O.2       3 UNK        -0.5102 
     57 CA         32.5394  -50.5772  -53.2919 C.3       3 UNK         0.0241 
     58 CB         33.2657  -51.9301  -53.1243 C.3       3 UNK        -0.1971 
     59 N          33.2563  -49.4996  -52.5885 N.am      3 UNK        -0.4139 
     60 C          34.4705  -49.0035  -52.8858 C.2       2 UNK         0.5016 
     61 O          35.2701  -49.5506  -53.6474 O.2       2 UNK        -0.5319 
     62 CA         34.8516  -47.6452  -52.2681 C.3       2 UNK         0.0286 
     63 CB         35.2536  -46.6440  -53.3670 C.3       2 UNK        -0.1963 
     64 N          33.7672  -47.0579  -51.4708 N.am      2 UNK        -0.4790 
     65 C          33.9315  -46.4803  -50.2733 C.2       1 UNK         0.5024 
     66 O          35.0268  -46.3455  -49.7257 O.2       1 UNK        -0.4888 
     67 H67        30.1978  -49.6200  -50.5008 H         1 UNK         0.0892 
     68 H68        29.5528  -49.1767  -48.9191 H         1 UNK         0.0892 
     69 H69        29.3315  -48.0964  -50.2955 H         1 UNK         0.0892 
     70 H70        30.6988  -46.3277  -50.1895 H         1 UNK         0.3107 
     71 H71        32.8909  -46.0614  -48.4812 H         1 UNK         0.0773 
     72 H72        31.8270  -44.0593  -48.9965 H         1 UNK         0.0680 
     73 H73        33.3056  -43.8957  -49.8847 H         1 UNK         0.0680 
     74 H74        33.5040  -44.0872  -52.4311 H         1 UNK         0.0650 
     75 H75        32.8139  -42.4863  -52.2617 H         1 UNK         0.0650 
     76 H76        33.9307  -44.3113  -54.7501 H         1 UNK         0.1397 
     77 H77        30.8462  -43.7136  -57.6344 H         1 UNK         0.1363 
     78 H78        30.0908  -42.8611  -53.5055 H         1 UNK         0.1355 
     79 H79        28.2797  -43.8941  -55.9419 H         1 UNK         0.0707 
     80 H80        28.3946  -42.3871  -55.0792 H         1 UNK         0.0707 
     81 H81        28.9885  -44.1323  -58.5261 H         1 UNK         0.1034 
     82 H82        28.7233  -42.8345  -59.6528 H         1 UNK         0.1034 
     83 H83        26.2451  -42.8687  -58.9406 H         1 UNK         0.0482 
     84 H84        25.9430  -44.4141  -62.1061 H         1 UNK         0.3460 
     85 H85        25.6303  -43.0242  -61.0992 H         1 UNK         0.3460 
     86 H86        27.1728  -45.3043  -57.5153 H         1 UNK         0.2989 
     87 H87        25.6597  -45.3961  -55.3211 H         1 UNK         0.0559 
     88 H88        22.9062  -46.0850  -56.4791 H         1 UNK         0.0848 
     89 H89        23.2522  -44.8554  -55.2740 H         1 UNK         0.0848 
     90 H90        23.4872  -46.5507  -54.8809 H         1 UNK         0.0848 
     91 H91        26.3309  -47.3780  -55.9971 H         1 UNK         0.3144 
     92 H92        25.1480  -49.9124  -57.9467 H         1 UNK         0.0727 
     93 H93        27.2487  -49.9956  -59.3107 H         1 UNK         0.0790 
     94 H94        27.4975  -48.2700  -59.0400 H         1 UNK         0.0790 
     95 H95        26.1142  -48.8252  -59.9675 H         1 UNK         0.0790 
     96 H96        27.7792  -49.4969  -56.8911 H         1 UNK         0.3215 
     97 H97        26.9870  -49.9838  -53.4594 H         1 UNK         0.0863 
     98 H98        28.8223  -51.6494  -53.6915 H         1 UNK         0.0808 
     99 H99        28.5773  -51.7108  -55.4371 H         1 UNK         0.0808 
    100 H100       27.3224  -52.2810  -54.3494 H         1 UNK         0.0808 
    101 H101       29.3905  -49.3909  -54.9628 H         1 UNK         0.3118 
    102 H102       29.2085  -45.8533  -54.6149 H         1 UNK         0.0546 
    103 H103       30.8436  -47.9786  -53.1338 H         1 UNK         0.0828 
    104 H104       31.4095  -46.3495  -53.5023 H         1 UNK         0.0828 
    105 H105       30.0319  -46.5887  -52.4311 H         1 UNK         0.0828 
    106 H106       31.1653  -47.7234  -55.6471 H         1 UNK         0.3005 
    107 H107       29.9468  -47.7448  -58.9686 H         1 UNK         0.1257 
    108 H108       31.2297  -45.5461  -58.8373 H         1 UNK         0.0775 
    109 H109       32.0158  -46.8280  -59.6867 H         1 UNK         0.0775 
    110 H110       34.4244  -44.3642  -57.1581 H         1 UNK         0.0840 
    111 H111       33.1900  -44.0505  -58.3472 H         1 UNK         0.0840 
    112 H112       32.3114  -48.8082  -57.8369 H         1 UNK         0.2987 
    113 H113       31.0980  -52.0397  -57.3164 H         1 UNK         0.0785 
    114 H114       32.8410  -51.0494  -58.8545 H         1 UNK         0.0798 
    115 H115       33.5276  -52.0465  -57.5865 H         1 UNK         0.0798 
    116 H116       33.6207  -50.2966  -57.4644 H         1 UNK         0.0798 
    117 H117       31.7141  -52.1158  -55.1741 H         1 UNK         0.3079 
    118 H118       31.5638  -50.6572  -52.8102 H         1 UNK         0.0794 
    119 H119       34.1805  -51.9775  -53.7162 H         1 UNK         0.0786 
    120 H120       32.6344  -52.7642  -53.4313 H         1 UNK         0.0786 
    121 H121       33.5357  -52.1056  -52.0828 H         1 UNK         0.0786 
    122 H122       32.7237  -49.0103  -51.8874 H         1 UNK         0.3032 
    123 H123       35.7217  -47.8360  -51.6357 H         1 UNK         0.1094 
    124 H124       34.4448  -46.5014  -54.0847 H         1 UNK         0.0794 
    125 H125       35.5157  -45.6724  -52.9485 H         1 UNK         0.0794 
    126 H126       36.1211  -46.9997  -53.9242 H         1 UNK         0.0794 
    127 H127       32.8432  -47.0661  -51.8751 H         1 UNK         0.3016 
@<TRIPOS>BOND
     1    1    2 1    
     2    1   67 1    
     3    1   68 1    
     4    1   69 1    
     5    2    3 2    
     6    2    4 am   BACKBONE|DICT|INTERRES
     7    4    5 1    
     8    4   70 1    
     9    5    6 1    
    10    5   65 1    
    11    5   71 1    
    12    6    7 1    
    13    6   72 1    
    14    6   73 1    
    15    7    8 1    
    16    8    9 1    
    17    8   74 1    
    18    8   75 1    
    19    9   10 ar   
    20    9   14 ar   
    21   10   11 ar   
    22   10   76 1    
    23   11   12 ar   
    24   11   48 1    
    25   12   13 ar   
    26   12   77 1    
    27   13   14 ar   
    28   13   15 1    
    29   14   78 1    
    30   15   16 1    
    31   15   79 1    
    32   15   80 1    
    33   16   17 1    
    34   17   18 1    
    35   17   81 1    
    36   17   82 1    
    37   18   19 1    
    38   18   22 1    
    39   18   83 1    
    40   19   20 am   BACKBONE|DICT|INTERRES
    41   19   21 2    
    42   20   84 1    
    43   20   85 1    
    44   22   23 am   BACKBONE|DICT|INTERRES
    45   22   86 1    
    46   23   24 2    
    47   23   25 1    
    48   25   26 1    
    49   25   27 1    
    50   25   87 1    
    51   26   88 1    
    52   26   89 1    
    53   26   90 1    
    54   27   28 am   BACKBONE|DICT|INTERRES
    55   27   91 1    
    56   28   29 2    
    57   28   30 1    
    58   30   31 1    
    59   30   32 1    
    60   30   92 1    
    61   31   93 1    
    62   31   94 1    
    63   31   95 1    
    64   32   33 am   BACKBONE|DICT|INTERRES
    65   32   96 1    
    66   33   34 2    
    67   33   35 1    
    68   35   36 1    
    69   35   37 1    
    70   35   97 1    
    71   36   98 1    
    72   36   99 1    
    73   36  100 1    
    74   37   38 am   BACKBONE|DICT|INTERRES
    75   37  101 1    
    76   38   39 2    
    77   38   40 1    
    78   40   41 1    
    79   40   42 1    
    80   40  102 1    
    81   41  103 1    
    82   41  104 1    
    83   41  105 1    
    84   42   43 am   BACKBONE|DICT|INTERRES
    85   42  106 1    
    86   43   44 2    
    87   43   45 1    
    88   45   46 1    
    89   45   49 1    
    90   45  107 1    
    91   46   47 1    
    92   46  108 1    
    93   46  109 1    
    94   47   48 1    
    95   48  110 1    
    96   48  111 1    
    97   49   50 am   BACKBONE|DICT|INTERRES
    98   49  112 1    
    99   50   51 2    
   100   50   52 1    
   101   52   53 1    
   102   52   54 1    
   103   52  113 1    
   104   53  114 1    
   105   53  115 1    
   106   53  116 1    
   107   54   55 am   BACKBONE|DICT|INTERRES
   108   54  117 1    
   109   55   56 2    
   110   55   57 1    
   111   57   58 1    
   112   57   59 1    
   113   57  118 1    
   114   58  119 1    
   115   58  120 1    
   116   58  121 1    
   117   59   60 am   BACKBONE|DICT|INTERRES
   118   59  122 1    
   119   60   61 2    
   120   60   62 1    
   121   62   63 1    
   122   62   64 1    
   123   62  123 1    
   124   63  124 1    
   125   63  125 1    
   126   63  126 1    
   127   64   65 am   BACKBONE|DICT|INTERRES
   128   64  127 1    
   129   65   66 2    
@<TRIPOS>SUBSTRUCTURE
     1 UNK         1 GROUP             0       ****    0 ROOT    
