@<TRIPOS>MOLECULE
3R134
127   129    1
SMALL
USER_CHARGES


@<TRIPOS>ATOM
      1 CA         35.8671  -47.4869  -50.7559 C.3       0 UNK        -0.1968 
      2 C          34.7211  -47.3949  -51.7509 C.2       0 UNK         0.4852 
      3 O          34.5664  -48.2906  -52.5807 O.2       0 UNK        -0.5359 
      4 N          33.9112  -46.3302  -51.6609 N.am      1 UNK        -0.4300 
      5 CA         32.7766  -45.9947  -52.5376 C.3       1 UNK         0.0863 
      6 C6         32.0445  -44.7249  -52.0318 C.3       11 UNK        -0.0953 
      7 S7         33.1432  -43.2620  -52.0604 S.3       11 UNK        -0.2369 
      8 C8         32.1732  -42.0097  -52.9747 C.3       11 UNK         0.0226 
      9 C9         31.5562  -42.5281  -54.2696 C.ar      11 UNK        -0.0699 
     10 C10        32.3072  -43.2928  -55.1676 C.ar      11 UNK        -0.0804 
     11 C11        31.7169  -43.8524  -56.3034 C.ar      11 UNK        -0.0871 
     12 C12        30.3657  -43.5843  -56.5642 C.ar      11 UNK        -0.1008 
     13 C13        29.6050  -42.8107  -55.6842 C.ar      11 UNK        -0.0735 
     14 C14        30.2079  -42.2803  -54.5417 C.ar      11 UNK        -0.0945 
     15 C15        28.1103  -42.6347  -55.9070 C.3       11 UNK         0.0169 
     16 S16        27.6892  -41.3018  -57.0689 S.3       11 UNK        -0.2669 
     17 C17        27.7060  -42.1534  -58.6866 C.3       11 UNK        -0.0850 
     18 CA         26.3060  -42.6929  -59.1222 C.3       10 UNK         0.0855 
     19 C          26.2069  -42.9427  -60.6614 C.2       10 UNK         0.5543 
     20 N          25.4173  -43.9042  -61.1250 N.am      10 UNK        -0.7343 
     21 O          26.8222  -42.2336  -61.4541 O.2       10 UNK        -0.5027 
     22 N          25.8204  -43.8169  -58.2905 N.am      10 UNK        -0.4495 
     23 C          26.3814  -45.0322  -58.2054 C.2       10 UNK         0.4903 
     24 O          27.4179  -45.3536  -58.7871 O.2       10 UNK        -0.4860 
     25 CA         25.6645  -46.0712  -57.3281 C.3       9 UNK         0.0227 
     26 CB         25.2184  -47.2818  -58.1646 C.3       9 UNK        -0.1964 
     27 N          26.5686  -46.5282  -56.2743 N.am      9 UNK        -0.4231 
     28 C          26.7261  -45.9118  -55.0966 C.2       9 UNK         0.5014 
     29 O          26.0265  -44.9681  -54.7221 O.2       9 UNK        -0.5270 
     30 CA         27.8718  -46.4271  -54.2062 C.3       8 UNK         0.0284 
     31 CB         28.0643  -45.5977  -52.9185 C.3       8 UNK        -0.1977 
     32 N          27.7506  -47.8536  -53.8928 N.am      8 UNK        -0.4342 
     33 C          26.7542  -48.4789  -53.2458 C.2       8 UNK         0.5039 
     34 O          25.7426  -47.9181  -52.8222 O.2       8 UNK        -0.5547 
     35 CA         26.9526  -49.9876  -52.9901 C.3       7 UNK         0.0281 
     36 CB         25.6255  -50.7558  -52.8055 C.3       7 UNK        -0.1963 
     37 N          27.8269  -50.6237  -53.9851 N.am      7 UNK        -0.4444 
     38 C          27.5589  -50.8522  -55.2764 C.2       7 UNK         0.5104 
     39 O          26.4628  -50.6523  -55.8030 O.2       7 UNK        -0.5100 
     40 CA         28.7509  -51.3427  -56.1241 C.3       6 UNK         0.0396 
     41 CB         28.2895  -51.9794  -57.4509 C.3       6 UNK        -0.1801 
     42 N          29.7535  -50.2994  -56.4038 N.am      6 UNK        -0.4747 
     43 C          29.5350  -49.0649  -56.8909 C.2       6 UNK         0.5012 
     44 O          28.4152  -48.5681  -57.0102 O.2       6 UNK        -0.5003 
     45 CA         30.7644  -48.2532  -57.3466 C.3       5 UNK         0.0782 
     46 C46        30.5092  -46.7262  -57.3413 C.3       11 UNK        -0.0868 
     47 S47        31.6803  -45.8019  -58.3935 S.3       11 UNK        -0.2515 
     48 C48        32.5748  -44.7703  -57.1798 C.3       11 UNK         0.0199 
     49 N          31.9499  -48.6014  -56.5597 N.am      5 UNK        -0.4607 
     50 C          33.1070  -49.0206  -57.0848 C.2       4 UNK         0.5031 
     51 O          33.2816  -49.2404  -58.2837 O.2       4 UNK        -0.5119 
     52 CA         34.2770  -49.2312  -56.1126 C.3       4 UNK         0.0263 
     53 CB         35.0170  -47.9054  -55.8711 C.3       4 UNK        -0.1967 
     54 N          33.8860  -49.8047  -54.8244 N.am      4 UNK        -0.4237 
     55 C          33.3686  -51.0282  -54.6452 C.2       3 UNK         0.4908 
     56 O          33.0859  -51.8003  -55.5615 O.2       3 UNK        -0.5102 
     57 CA         33.1237  -51.4590  -53.1933 C.3       3 UNK         0.0241 
     58 CB         34.4450  -51.8381  -52.5032 C.3       3 UNK        -0.1971 
     59 N          32.4603  -50.3981  -52.4367 N.am      3 UNK        -0.4139 
     60 C          31.1325  -50.2384  -52.3858 C.2       2 UNK         0.5016 
     61 O          30.3319  -50.9948  -52.9344 O.2       2 UNK        -0.5319 
     62 CA         30.5920  -49.0278  -51.6059 C.3       2 UNK         0.0286 
     63 CB         30.2888  -49.4151  -50.1508 C.3       2 UNK        -0.1963 
     64 N          31.4812  -47.8663  -51.6276 N.am      2 UNK        -0.4790 
     65 C          31.7748  -47.1531  -52.7246 C.2       1 UNK         0.5024 
     66 O          31.3210  -47.4012  -53.8441 O.2       1 UNK        -0.4888 
     67 H67        35.7785  -48.3990  -50.1666 H         1 UNK         0.0892 
     68 H68        36.8188  -47.5148  -51.2858 H         1 UNK         0.0892 
     69 H69        35.8838  -46.6392  -50.0713 H         1 UNK         0.0892 
     70 H70        34.1106  -45.6338  -50.9566 H         1 UNK         0.3107 
     71 H71        33.1906  -45.7836  -53.5254 H         1 UNK         0.0773 
     72 H72        31.1515  -44.5313  -52.6276 H         1 UNK         0.0680 
     73 H73        31.6908  -44.8655  -51.0088 H         1 UNK         0.0680 
     74 H74        32.8206  -41.1632  -53.2062 H         1 UNK         0.0650 
     75 H75        31.3976  -41.6320  -52.3067 H         1 UNK         0.0650 
     76 H76        33.3485  -43.4924  -54.9538 H         1 UNK         0.1397 
     77 H77        29.8838  -44.0133  -57.4288 H         1 UNK         0.1363 
     78 H78        29.6155  -41.7026  -53.8453 H         1 UNK         0.1355 
     79 H79        27.6961  -43.5693  -56.2693 H         1 UNK         0.0707 
     80 H80        27.6111  -42.4370  -54.9571 H         1 UNK         0.0707 
     81 H81        28.4529  -42.9444  -58.7029 H         1 UNK         0.1034 
     82 H82        28.0666  -41.4100  -59.3994 H         1 UNK         0.1034 
     83 H83        25.5914  -41.8874  -58.9499 H         1 UNK         0.0482 
     84 H84        24.8930  -44.4847  -60.4910 H         1 UNK         0.3460 
     85 H85        25.3492  -44.0506  -62.1199 H         1 UNK         0.3460 
     86 H86        24.9692  -43.6384  -57.7766 H         1 UNK         0.2989 
     87 H87        24.7744  -45.6224  -56.8821 H         1 UNK         0.0559 
     88 H88        24.5350  -46.9797  -58.9589 H         1 UNK         0.0848 
     89 H89        24.6993  -48.0174  -57.5497 H         1 UNK         0.0848 
     90 H90        26.0663  -47.7830  -58.6344 H         1 UNK         0.0848 
     91 H91        27.2017  -47.2874  -56.5254 H         1 UNK         0.3144 
     92 H92        28.7847  -46.3196  -54.7919 H         1 UNK         0.0727 
     93 H93        28.9053  -45.9653  -52.3314 H         1 UNK         0.0790 
     94 H94        27.1773  -45.6209  -52.2847 H         1 UNK         0.0790 
     95 H95        28.2678  -44.5530  -53.1571 H         1 UNK         0.0790 
     96 H96        28.4993  -48.4338  -54.2428 H         1 UNK         0.3215 
     97 H97        27.4904  -50.0562  -52.0434 H         1 UNK         0.0863 
     98 H98        25.7998  -51.8201  -52.6489 H         1 UNK         0.0808 
     99 H99        24.9658  -50.6444  -53.6662 H         1 UNK         0.0808 
    100 H100       25.0811  -50.3862  -51.9358 H         1 UNK         0.0808 
    101 H101       28.7698  -50.8434  -53.6541 H         1 UNK         0.3118 
    102 H102       29.2576  -52.1169  -55.5453 H         1 UNK         0.0546 
    103 H103       27.8022  -51.2517  -58.1012 H         1 UNK         0.0828 
    104 H104       29.1286  -52.4083  -57.9984 H         1 UNK         0.0828 
    105 H105       27.5753  -52.7839  -57.2707 H         1 UNK         0.0828 
    106 H106       30.7174  -50.5912  -56.3070 H         1 UNK         0.3005 
    107 H107       30.9029  -48.5556  -58.3871 H         1 UNK         0.1257 
    108 H108       30.5369  -46.3506  -56.3186 H         1 UNK         0.0775 
    109 H109       29.5196  -46.4823  -57.7277 H         1 UNK         0.0775 
    110 H110       33.1507  -45.4390  -56.5389 H         1 UNK         0.0840 
    111 H111       33.2996  -44.1586  -57.7183 H         1 UNK         0.0840 
    112 H112       31.8887  -48.4211  -55.5628 H         1 UNK         0.2987 
    113 H113       34.9725  -49.9283  -56.5848 H         1 UNK         0.0785 
    114 H114       35.9233  -48.0599  -55.2854 H         1 UNK         0.0798 
    115 H115       34.3934  -47.1901  -55.3341 H         1 UNK         0.0798 
    116 H116       35.3135  -47.4422  -56.8133 H         1 UNK         0.0798 
    117 H117       34.1029  -49.2451  -53.9990 H         1 UNK         0.3079 
    118 H118       32.4891  -52.3481  -53.2086 H         1 UNK         0.0794 
    119 H119       34.9541  -52.6344  -53.0479 H         1 UNK         0.0786 
    120 H120       34.2707  -52.1998  -51.4897 H         1 UNK         0.0786 
    121 H121       35.1325  -50.9935  -52.4424 H         1 UNK         0.0786 
    122 H122       33.0554  -49.6849  -52.0327 H         1 UNK         0.3032 
    123 H123       29.6556  -48.7297  -52.0770 H         1 UNK         0.1094 
    124 H124       29.8144  -48.5946  -49.6121 H         1 UNK         0.0794 
    125 H125       29.6066  -50.2655  -50.1070 H         1 UNK         0.0794 
    126 H126       31.1934  -49.6954  -49.6096 H         1 UNK         0.0794 
    127 H127       31.9122  -47.6009  -50.7534 H         1 UNK         0.3016 
@<TRIPOS>BOND
     1    1    2 1    
     2    1   67 1    
     3    1   68 1    
     4    1   69 1    
     5    2    3 2    
     6    2    4 am   BACKBONE|DICT|INTERRES
     7    4    5 1    
     8    4   70 1    
     9    5    6 1    
    10    5   65 1    
    11    5   71 1    
    12    6    7 1    
    13    6   72 1    
    14    6   73 1    
    15    7    8 1    
    16    8    9 1    
    17    8   74 1    
    18    8   75 1    
    19    9   10 ar   
    20    9   14 ar   
    21   10   11 ar   
    22   10   76 1    
    23   11   12 ar   
    24   11   48 1    
    25   12   13 ar   
    26   12   77 1    
    27   13   14 ar   
    28   13   15 1    
    29   14   78 1    
    30   15   16 1    
    31   15   79 1    
    32   15   80 1    
    33   16   17 1    
    34   17   18 1    
    35   17   81 1    
    36   17   82 1    
    37   18   19 1    
    38   18   22 1    
    39   18   83 1    
    40   19   20 am   BACKBONE|DICT|INTERRES
    41   19   21 2    
    42   20   84 1    
    43   20   85 1    
    44   22   23 am   BACKBONE|DICT|INTERRES
    45   22   86 1    
    46   23   24 2    
    47   23   25 1    
    48   25   26 1    
    49   25   27 1    
    50   25   87 1    
    51   26   88 1    
    52   26   89 1    
    53   26   90 1    
    54   27   28 am   BACKBONE|DICT|INTERRES
    55   27   91 1    
    56   28   29 2    
    57   28   30 1    
    58   30   31 1    
    59   30   32 1    
    60   30   92 1    
    61   31   93 1    
    62   31   94 1    
    63   31   95 1    
    64   32   33 am   BACKBONE|DICT|INTERRES
    65   32   96 1    
    66   33   34 2    
    67   33   35 1    
    68   35   36 1    
    69   35   37 1    
    70   35   97 1    
    71   36   98 1    
    72   36   99 1    
    73   36  100 1    
    74   37   38 am   BACKBONE|DICT|INTERRES
    75   37  101 1    
    76   38   39 2    
    77   38   40 1    
    78   40   41 1    
    79   40   42 1    
    80   40  102 1    
    81   41  103 1    
    82   41  104 1    
    83   41  105 1    
    84   42   43 am   BACKBONE|DICT|INTERRES
    85   42  106 1    
    86   43   44 2    
    87   43   45 1    
    88   45   46 1    
    89   45   49 1    
    90   45  107 1    
    91   46   47 1    
    92   46  108 1    
    93   46  109 1    
    94   47   48 1    
    95   48  110 1    
    96   48  111 1    
    97   49   50 am   BACKBONE|DICT|INTERRES
    98   49  112 1    
    99   50   51 2    
   100   50   52 1    
   101   52   53 1    
   102   52   54 1    
   103   52  113 1    
   104   53  114 1    
   105   53  115 1    
   106   53  116 1    
   107   54   55 am   BACKBONE|DICT|INTERRES
   108   54  117 1    
   109   55   56 2    
   110   55   57 1    
   111   57   58 1    
   112   57   59 1    
   113   57  118 1    
   114   58  119 1    
   115   58  120 1    
   116   58  121 1    
   117   59   60 am   BACKBONE|DICT|INTERRES
   118   59  122 1    
   119   60   61 2    
   120   60   62 1    
   121   62   63 1    
   122   62   64 1    
   123   62  123 1    
   124   63  124 1    
   125   63  125 1    
   126   63  126 1    
   127   64   65 am   BACKBONE|DICT|INTERRES
   128   64  127 1    
   129   65   66 2    
@<TRIPOS>SUBSTRUCTURE
     1 UNK         1 GROUP             0       ****    0 ROOT    
