@<TRIPOS>MOLECULE
3R134
127   129    1
SMALL
USER_CHARGES


@<TRIPOS>ATOM
      1 CA         35.4708  -48.7557  -58.1984 C.3       0 UNK        -0.1968 
      2 C          36.1132  -47.7403  -57.2584 C.2       0 UNK         0.4852 
      3 O          37.3386  -47.6413  -57.2271 O.2       0 UNK        -0.5359 
      4 N          35.3465  -46.9667  -56.4758 N.am      1 UNK        -0.4300 
      5 CA         33.8790  -46.9672  -56.3671 C.3       1 UNK         0.0863 
      6 C6         33.3631  -45.6392  -55.7721 C.3       11 UNK        -0.0953 
      7 S7         33.7103  -44.2128  -56.8544 S.3       11 UNK        -0.2369 
      8 C8         33.5644  -42.8279  -55.6831 C.3       11 UNK         0.0226 
      9 C9         32.1769  -42.7450  -55.0618 C.ar      11 UNK        -0.0699 
     10 C10        31.9169  -43.3907  -53.8504 C.ar      11 UNK        -0.0804 
     11 C11        30.6524  -43.3265  -53.2624 C.ar      11 UNK        -0.0871 
     12 C12        29.6552  -42.5583  -53.8738 C.ar      11 UNK        -0.1008 
     13 C13        29.8926  -41.9250  -55.0970 C.ar      11 UNK        -0.0735 
     14 C14        31.1565  -42.0238  -55.6887 C.ar      11 UNK        -0.0945 
     15 C15        28.7871  -41.1298  -55.7763 C.3       11 UNK         0.0169 
     16 S16        27.6889  -42.2021  -56.7567 S.3       11 UNK        -0.2669 
     17 C17        26.5180  -42.7920  -55.4815 C.3       11 UNK        -0.0850 
     18 CA         25.3459  -43.6443  -56.0350 C.3       10 UNK         0.0855 
     19 C          24.3709  -42.8199  -56.9259 C.2       10 UNK         0.5543 
     20 N          23.5468  -41.9776  -56.3166 N.am      10 UNK        -0.7343 
     21 O          24.3664  -42.9132  -58.1521 O.2       10 UNK        -0.5027 
     22 N          25.8443  -44.8758  -56.6605 N.am      10 UNK        -0.4495 
     23 C          25.0987  -45.9308  -57.0111 C.2       10 UNK         0.4903 
     24 O          23.8863  -46.0042  -56.8051 O.2       10 UNK        -0.4860 
     25 CA         25.8179  -47.1393  -57.6433 C.3       9 UNK         0.0227 
     26 CB         25.1360  -47.6096  -58.9451 C.3       9 UNK        -0.1964 
     27 N          27.2665  -46.9673  -57.8163 N.am      9 UNK        -0.4231 
     28 C          27.9274  -46.2067  -58.7025 C.2       9 UNK         0.5014 
     29 O          27.3870  -45.5013  -59.5538 O.2       9 UNK        -0.5270 
     30 CA         29.4623  -46.2315  -58.6126 C.3       8 UNK         0.0284 
     31 CB         29.9661  -45.1544  -57.6400 C.3       8 UNK        -0.1977 
     32 N          29.9692  -47.5425  -58.1982 N.am      8 UNK        -0.4342 
     33 C          30.1152  -48.5883  -59.0240 C.2       8 UNK         0.5039 
     34 O          29.9197  -48.5318  -60.2387 O.2       8 UNK        -0.5547 
     35 CA         30.5486  -49.9262  -58.4022 C.3       7 UNK         0.0281 
     36 CB         32.0638  -50.1274  -58.5454 C.3       7 UNK        -0.1963 
     37 N          30.1612  -50.0347  -56.9916 N.am      7 UNK        -0.4444 
     38 C          28.9645  -50.4911  -56.5985 C.2       7 UNK         0.5104 
     39 O          28.0979  -50.8863  -57.3795 O.2       7 UNK        -0.5100 
     40 CA         28.6591  -50.5232  -55.0906 C.3       6 UNK         0.0396 
     41 CB         29.0147  -51.8991  -54.5063 C.3       6 UNK        -0.1801 
     42 N          29.2640  -49.4681  -54.2681 N.am      6 UNK        -0.4747 
     43 C          29.1071  -48.1464  -54.4563 C.2       6 UNK         0.5012 
     44 O          28.6352  -47.6703  -55.4897 O.2       6 UNK        -0.5003 
     45 CA         29.5029  -47.1922  -53.3010 C.3       5 UNK         0.0782 
     46 C46        28.6268  -45.9011  -53.3107 C.3       11 UNK        -0.0868 
     47 S47        28.7422  -44.8323  -51.8285 S.3       11 UNK        -0.2515 
     48 C48        30.4012  -44.0854  -51.9630 C.3       11 UNK         0.0199 
     49 N          29.5497  -47.8764  -52.0024 N.am      5 UNK        -0.4607 
     50 C          28.5197  -48.4071  -51.3240 C.2       4 UNK         0.5031 
     51 O          27.3487  -48.3515  -51.7021 O.2       4 UNK        -0.5119 
     52 CA         28.8599  -49.1304  -50.0008 C.3       4 UNK         0.0263 
     53 CB         27.8862  -50.2902  -49.6988 C.3       4 UNK        -0.1967 
     54 N          30.2563  -49.5888  -49.9161 N.am      4 UNK        -0.4237 
     55 C          30.8677  -50.4402  -50.7523 C.2       3 UNK         0.4908 
     56 O          30.3085  -51.0132  -51.6891 O.2       3 UNK        -0.5102 
     57 CA         32.3715  -50.6566  -50.5268 C.3       3 UNK         0.0241 
     58 CB         32.6171  -51.9538  -49.7395 C.3       3 UNK        -0.1971 
     59 N          33.0986  -50.7145  -51.7975 N.am      3 UNK        -0.4139 
     60 C          33.1771  -49.7149  -52.6878 C.2       2 UNK         0.5016 
     61 O          32.6957  -48.5931  -52.5002 O.2       2 UNK        -0.5319 
     62 CA         33.9445  -50.0438  -53.9836 C.3       2 UNK         0.0286 
     63 CB         33.2546  -51.1688  -54.7879 C.3       2 UNK        -0.1963 
     64 N          34.2032  -48.8707  -54.8305 N.am      2 UNK        -0.4790 
     65 C          33.3248  -48.1567  -55.5517 C.2       1 UNK         0.5024 
     66 O          32.1212  -48.4099  -55.6249 O.2       1 UNK        -0.4888 
     67 H67        36.2274  -49.2170  -58.8327 H         1 UNK         0.0892 
     68 H68        34.9851  -49.5519  -57.6357 H         1 UNK         0.0892 
     69 H69        34.7427  -48.2806  -58.8545 H         1 UNK         0.0892 
     70 H70        35.8098  -46.2859  -55.8910 H         1 UNK         0.3107 
     71 H71        33.4563  -47.0572  -57.3691 H         1 UNK         0.0773 
     72 H72        32.2831  -45.6754  -55.6146 H         1 UNK         0.0680 
     73 H73        33.8140  -45.4680  -54.7932 H         1 UNK         0.0680 
     74 H74        33.7908  -41.8985  -56.2076 H         1 UNK         0.0650 
     75 H75        34.3237  -42.9311  -54.9064 H         1 UNK         0.0650 
     76 H76        32.7028  -43.9541  -53.3669 H         1 UNK         0.1397 
     77 H77        28.6846  -42.4708  -53.4072 H         1 UNK         0.1363 
     78 H78        31.3487  -41.5355  -56.6343 H         1 UNK         0.1355 
     79 H79        28.2084  -40.5749  -55.0363 H         1 UNK         0.0707 
     80 H80        29.2231  -40.3816  -56.4400 H         1 UNK         0.0707 
     81 H81        26.1332  -41.9333  -54.9286 H         1 UNK         0.1034 
     82 H82        27.0703  -43.3878  -54.7547 H         1 UNK         0.1034 
     83 H83        24.7610  -43.9711  -55.1727 H         1 UNK         0.0482 
     84 H84        23.5370  -41.8878  -55.3126 H         1 UNK         0.3460 
     85 H85        22.9131  -41.4256  -56.8734 H         1 UNK         0.3460 
     86 H86        26.8203  -44.8743  -56.9140 H         1 UNK         0.2989 
     87 H87        25.7179  -47.9489  -56.9188 H         1 UNK         0.0559 
     88 H88        24.1014  -47.9004  -58.7598 H         1 UNK         0.0848 
     89 H89        25.6440  -48.4760  -59.3688 H         1 UNK         0.0848 
     90 H90        25.1175  -46.8251  -59.7019 H         1 UNK         0.0848 
     91 H91        27.8269  -47.4142  -57.0914 H         1 UNK         0.3144 
     92 H92        29.8569  -45.9976  -59.6038 H         1 UNK         0.0727 
     93 H93        29.6171  -44.1657  -57.9387 H         1 UNK         0.0790 
     94 H94        31.0533  -45.1163  -57.6338 H         1 UNK         0.0790 
     95 H95        29.6280  -45.3263  -56.6177 H         1 UNK         0.0790 
     96 H96        30.1071  -47.6888  -57.2059 H         1 UNK         0.3215 
     97 H97        30.0621  -50.7228  -58.9699 H         1 UNK         0.0863 
     98 H98        32.3927  -51.0527  -58.0724 H         1 UNK         0.0808 
     99 H99        32.6170  -49.3036  -58.1027 H         1 UNK         0.0808 
    100 H100       32.3498  -50.1786  -59.5967 H         1 UNK         0.0808 
    101 H101       30.8083  -49.6640  -56.2999 H         1 UNK         0.3118 
    102 H102       27.5786  -50.3982  -54.9954 H         1 UNK         0.0546 
    103 H103       30.0931  -52.0492  -54.4514 H         1 UNK         0.0828 
    104 H104       28.6020  -52.7059  -55.1137 H         1 UNK         0.0828 
    105 H105       28.6085  -52.0177  -53.5018 H         1 UNK         0.0828 
    106 H106       29.6780  -49.7753  -53.3948 H         1 UNK         0.3005 
    107 H107       30.5313  -46.8948  -53.5146 H         1 UNK         0.1257 
    108 H108       28.8535  -45.3022  -54.1939 H         1 UNK         0.0775 
    109 H109       27.5727  -46.1690  -53.4066 H         1 UNK         0.0775 
    110 H110       30.5425  -43.3990  -51.1274 H         1 UNK         0.0840 
    111 H111       31.1388  -44.8796  -51.8364 H         1 UNK         0.0840 
    112 H112       30.4801  -48.0037  -51.6271 H         1 UNK         0.2987 
    113 H113       28.7366  -48.3838  -49.2149 H         1 UNK         0.0785 
    114 H114       28.1365  -50.7852  -48.7606 H         1 UNK         0.0798 
    115 H115       27.8951  -51.0424  -50.4883 H         1 UNK         0.0798 
    116 H116       26.8612  -49.9284  -49.6083 H         1 UNK         0.0798 
    117 H117       30.8059  -49.1652  -49.1804 H         1 UNK         0.3079 
    118 H118       32.7712  -49.8172  -49.9537 H         1 UNK         0.0794 
    119 H119       32.1073  -51.9283  -48.7754 H         1 UNK         0.0786 
    120 H120       33.6783  -52.1034  -49.5392 H         1 UNK         0.0786 
    121 H121       32.2494  -52.8281  -50.2786 H         1 UNK         0.0786 
    122 H122       33.5023  -51.6078  -52.0374 H         1 UNK         0.3032 
    123 H123       34.9276  -50.4064  -53.6778 H         1 UNK         0.1094 
    124 H124       32.2141  -50.9328  -55.0088 H         1 UNK         0.0794 
    125 H125       33.7646  -51.3524  -55.7335 H         1 UNK         0.0794 
    126 H126       33.2567  -52.1096  -54.2370 H         1 UNK         0.0794 
    127 H127       35.1580  -48.5399  -54.8208 H         1 UNK         0.3016 
@<TRIPOS>BOND
     1    1    2 1    
     2    1   67 1    
     3    1   68 1    
     4    1   69 1    
     5    2    3 2    
     6    2    4 am   BACKBONE|DICT|INTERRES
     7    4    5 1    
     8    4   70 1    
     9    5    6 1    
    10    5   65 1    
    11    5   71 1    
    12    6    7 1    
    13    6   72 1    
    14    6   73 1    
    15    7    8 1    
    16    8    9 1    
    17    8   74 1    
    18    8   75 1    
    19    9   10 ar   
    20    9   14 ar   
    21   10   11 ar   
    22   10   76 1    
    23   11   12 ar   
    24   11   48 1    
    25   12   13 ar   
    26   12   77 1    
    27   13   14 ar   
    28   13   15 1    
    29   14   78 1    
    30   15   16 1    
    31   15   79 1    
    32   15   80 1    
    33   16   17 1    
    34   17   18 1    
    35   17   81 1    
    36   17   82 1    
    37   18   19 1    
    38   18   22 1    
    39   18   83 1    
    40   19   20 am   BACKBONE|DICT|INTERRES
    41   19   21 2    
    42   20   84 1    
    43   20   85 1    
    44   22   23 am   BACKBONE|DICT|INTERRES
    45   22   86 1    
    46   23   24 2    
    47   23   25 1    
    48   25   26 1    
    49   25   27 1    
    50   25   87 1    
    51   26   88 1    
    52   26   89 1    
    53   26   90 1    
    54   27   28 am   BACKBONE|DICT|INTERRES
    55   27   91 1    
    56   28   29 2    
    57   28   30 1    
    58   30   31 1    
    59   30   32 1    
    60   30   92 1    
    61   31   93 1    
    62   31   94 1    
    63   31   95 1    
    64   32   33 am   BACKBONE|DICT|INTERRES
    65   32   96 1    
    66   33   34 2    
    67   33   35 1    
    68   35   36 1    
    69   35   37 1    
    70   35   97 1    
    71   36   98 1    
    72   36   99 1    
    73   36  100 1    
    74   37   38 am   BACKBONE|DICT|INTERRES
    75   37  101 1    
    76   38   39 2    
    77   38   40 1    
    78   40   41 1    
    79   40   42 1    
    80   40  102 1    
    81   41  103 1    
    82   41  104 1    
    83   41  105 1    
    84   42   43 am   BACKBONE|DICT|INTERRES
    85   42  106 1    
    86   43   44 2    
    87   43   45 1    
    88   45   46 1    
    89   45   49 1    
    90   45  107 1    
    91   46   47 1    
    92   46  108 1    
    93   46  109 1    
    94   47   48 1    
    95   48  110 1    
    96   48  111 1    
    97   49   50 am   BACKBONE|DICT|INTERRES
    98   49  112 1    
    99   50   51 2    
   100   50   52 1    
   101   52   53 1    
   102   52   54 1    
   103   52  113 1    
   104   53  114 1    
   105   53  115 1    
   106   53  116 1    
   107   54   55 am   BACKBONE|DICT|INTERRES
   108   54  117 1    
   109   55   56 2    
   110   55   57 1    
   111   57   58 1    
   112   57   59 1    
   113   57  118 1    
   114   58  119 1    
   115   58  120 1    
   116   58  121 1    
   117   59   60 am   BACKBONE|DICT|INTERRES
   118   59  122 1    
   119   60   61 2    
   120   60   62 1    
   121   62   63 1    
   122   62   64 1    
   123   62  123 1    
   124   63  124 1    
   125   63  125 1    
   126   63  126 1    
   127   64   65 am   BACKBONE|DICT|INTERRES
   128   64  127 1    
   129   65   66 2    
@<TRIPOS>SUBSTRUCTURE
     1 UNK         1 GROUP             0       ****    0 ROOT    
