@<TRIPOS>MOLECULE
3R134
127   129    1
SMALL
USER_CHARGES


@<TRIPOS>ATOM
      1 CA         38.0009  -47.7363  -52.3697 C.3       0 UNK        -0.1968 
      2 C          36.6568  -47.5829  -53.0647 C.2       0 UNK         0.4852 
      3 O          36.0051  -48.5847  -53.3668 O.2       0 UNK        -0.5359 
      4 N          36.2195  -46.3366  -53.3020 N.am      1 UNK        -0.4300 
      5 CA         34.9685  -45.9996  -53.9974 C.3       1 UNK         0.0863 
      6 C6         34.9191  -44.5137  -54.4275 C.3       11 UNK        -0.0953 
      7 S7         34.7834  -43.3342  -53.0393 S.3       11 UNK        -0.2369 
      8 C8         33.6913  -42.0575  -53.7466 C.3       11 UNK         0.0226 
      9 C9         32.2815  -42.5661  -54.0261 C.ar      11 UNK        -0.0699 
     10 C10        31.4155  -42.8578  -52.9684 C.ar      11 UNK        -0.0804 
     11 C11        30.1067  -43.2881  -53.2120 C.ar      11 UNK        -0.0871 
     12 C12        29.6683  -43.4232  -54.5352 C.ar      11 UNK        -0.1008 
     13 C13        30.5251  -43.1384  -55.6029 C.ar      11 UNK        -0.0735 
     14 C14        31.8300  -42.7099  -55.3419 C.ar      11 UNK        -0.0945 
     15 C15        30.0340  -43.2773  -57.0364 C.3       11 UNK         0.0169 
     16 S16        28.9439  -41.8900  -57.4806 S.3       11 UNK        -0.2669 
     17 C17        28.7142  -42.1266  -59.2754 C.3       11 UNK        -0.0850 
     18 CA         27.3557  -42.8075  -59.6266 C.3       10 UNK         0.0855 
     19 C          26.6779  -42.2028  -60.8931 C.2       10 UNK         0.5543 
     20 N          26.1086  -43.0000  -61.7905 N.am      10 UNK        -0.7343 
     21 O          26.6434  -40.9860  -61.0597 O.2       10 UNK        -0.5027 
     22 N          27.5013  -44.2701  -59.7103 N.am      10 UNK        -0.4495 
     23 C          27.1996  -45.1465  -58.7484 C.2       10 UNK         0.4903 
     24 O          26.7633  -44.8344  -57.6379 O.2       10 UNK        -0.4860 
     25 CA         27.4809  -46.6217  -59.0936 C.3       9 UNK         0.0227 
     26 CB         28.9960  -46.8702  -59.1803 C.3       9 UNK        -0.1964 
     27 N          26.9031  -47.5336  -58.1039 N.am      9 UNK        -0.4231 
     28 C          25.5949  -47.8074  -57.9987 C.2       9 UNK         0.5014 
     29 O          24.7531  -47.4228  -58.8143 O.2       9 UNK        -0.5270 
     30 CA         25.1501  -48.6182  -56.7659 C.3       8 UNK         0.0284 
     31 CB         23.7277  -49.2053  -56.8986 C.3       8 UNK        -0.1977 
     32 N          26.1151  -49.6451  -56.3593 N.am      8 UNK        -0.4342 
     33 C          26.4755  -50.7503  -57.0304 C.2       8 UNK         0.5039 
     34 O          26.0133  -51.0625  -58.1289 O.2       8 UNK        -0.5547 
     35 CA         27.5288  -51.6765  -56.3835 C.3       7 UNK         0.0281 
     36 CB         28.7560  -51.8310  -57.2982 C.3       7 UNK        -0.1963 
     37 N          27.9742  -51.2341  -55.0582 N.am      7 UNK        -0.4444 
     38 C          27.2825  -51.3859  -53.9206 C.2       7 UNK         0.5104 
     39 O          26.2165  -51.9968  -53.8447 O.2       7 UNK        -0.5100 
     40 CA         27.8493  -50.6983  -52.6639 C.3       6 UNK         0.0396 
     41 CB         28.7997  -51.6427  -51.9122 C.3       6 UNK        -0.1801 
     42 N          28.5375  -49.4335  -52.9478 N.am      6 UNK        -0.4747 
     43 C          27.9618  -48.3453  -53.4837 C.2       6 UNK         0.5012 
     44 O          26.7680  -48.2821  -53.7767 O.2       6 UNK        -0.5003 
     45 CA         28.8916  -47.1605  -53.8179 C.3       5 UNK         0.0782 
     46 C46        29.2672  -46.3533  -52.5487 C.3       11 UNK        -0.0868 
     47 S47        28.0787  -45.0075  -52.2380 S.3       11 UNK        -0.2515 
     48 C48        29.1799  -43.5651  -52.0284 C.3       11 UNK         0.0199 
     49 N          30.0745  -47.5954  -54.5640 N.am      5 UNK        -0.4607 
     50 C          30.0539  -48.2169  -55.7503 C.2       4 UNK         0.5031 
     51 O          29.0262  -48.4237  -56.3934 O.2       4 UNK        -0.5119 
     52 CA         31.3969  -48.7499  -56.2770 C.3       4 UNK         0.0263 
     53 CB         32.1748  -47.6621  -57.0363 C.3       4 UNK        -0.1967 
     54 N          32.2222  -49.2888  -55.1933 N.am      4 UNK        -0.4237 
     55 C          31.9391  -50.4111  -54.5155 C.2       3 UNK         0.4908 
     56 O          30.9969  -51.1541  -54.7883 O.2       3 UNK        -0.5102 
     57 CA         32.8281  -50.7327  -53.3022 C.3       3 UNK         0.0241 
     58 CB         34.1113  -51.4537  -53.7433 C.3       3 UNK        -0.1971 
     59 N          33.1710  -49.5347  -52.5301 N.am      3 UNK        -0.4139 
     60 C          32.2816  -48.8242  -51.8168 C.2       2 UNK         0.5016 
     61 O          31.1031  -49.1507  -51.6813 O.2       2 UNK        -0.5319 
     62 CA         32.7630  -47.4995  -51.1936 C.3       2 UNK         0.0286 
     63 CB         33.2694  -47.7320  -49.7621 C.3       2 UNK        -0.1963 
     64 N          33.8075  -46.8336  -51.9762 N.am      2 UNK        -0.4790 
     65 C          33.6883  -46.4513  -53.2571 C.2       1 UNK         0.5024 
     66 O          32.6284  -46.5130  -53.8767 O.2       1 UNK        -0.4888 
     67 H67        38.4589  -46.7723  -52.1493 H         1 UNK         0.0892 
     68 H68        37.8784  -48.2770  -51.4317 H         1 UNK         0.0892 
     69 H69        38.6857  -48.3008  -53.0016 H         1 UNK         0.0892 
     70 H70        36.7790  -45.5469  -53.0109 H         1 UNK         0.3107 
     71 H71        34.9784  -46.5826  -54.9211 H         1 UNK         0.0773 
     72 H72        34.0872  -44.3679  -55.1172 H         1 UNK         0.0680 
     73 H73        35.8137  -44.2623  -54.9992 H         1 UNK         0.0680 
     74 H74        33.6347  -41.2215  -53.0481 H         1 UNK         0.0650 
     75 H75        34.1495  -41.6634  -54.6551 H         1 UNK         0.0650 
     76 H76        31.7650  -42.7389  -51.9517 H         1 UNK         0.1397 
     77 H77        28.6546  -43.7391  -54.7411 H         1 UNK         0.1363 
     78 H78        32.4917  -42.4774  -56.1649 H         1 UNK         0.1355 
     79 H79        30.8780  -43.3166  -57.7268 H         1 UNK         0.0707 
     80 H80        29.4958  -44.2187  -57.1473 H         1 UNK         0.0707 
     81 H81        29.5536  -42.6816  -59.6973 H         1 UNK         0.1034 
     82 H82        28.7901  -41.1293  -59.7121 H         1 UNK         0.1034 
     83 H83        26.6398  -42.5755  -58.8359 H         1 UNK         0.0482 
     84 H84        26.0635  -43.9958  -61.6477 H         1 UNK         0.3460 
     85 H85        25.6684  -42.5894  -62.5993 H         1 UNK         0.3460 
     86 H86        27.8635  -44.6152  -60.5879 H         1 UNK         0.2989 
     87 H87        27.0357  -46.8430  -60.0658 H         1 UNK         0.0559 
     88 H88        29.5027  -46.5265  -58.2789 H         1 UNK         0.0848 
     89 H89        29.4392  -46.3385  -60.0227 H         1 UNK         0.0848 
     90 H90        29.2226  -47.9286  -59.3119 H         1 UNK         0.0848 
     91 H91        27.5409  -47.8873  -57.3932 H         1 UNK         0.3144 
     92 H92        25.1230  -47.9009  -55.9446 H         1 UNK         0.0727 
     93 H93        23.6455  -49.8828  -57.7489 H         1 UNK         0.0790 
     94 H94        22.9909  -48.4143  -57.0430 H         1 UNK         0.0790 
     95 H95        23.4402  -49.7541  -56.0018 H         1 UNK         0.0790 
     96 H96        26.5750  -49.4601  -55.4743 H         1 UNK         0.3215 
     97 H97        27.0647  -52.6592  -56.2766 H         1 UNK         0.0863 
     98 H98        29.2298  -50.8711  -57.5011 H         1 UNK         0.0808 
     99 H99        28.4751  -52.2623  -58.2598 H         1 UNK         0.0808 
    100 H100       29.5040  -52.4887  -56.8551 H         1 UNK         0.0808 
    101 H101       28.8747  -50.7700  -55.0136 H         1 UNK         0.3118 
    102 H102       27.0078  -50.4710  -52.0064 H         1 UNK         0.0546 
    103 H103       29.1500  -51.1951  -50.9819 H         1 UNK         0.0828 
    104 H104       29.6750  -51.8952  -52.5110 H         1 UNK         0.0828 
    105 H105       28.2994  -52.5772  -51.6548 H         1 UNK         0.0828 
    106 H106       29.5205  -49.3829  -52.6859 H         1 UNK         0.3005 
    107 H107       28.3423  -46.5087  -54.5019 H         1 UNK         0.1257 
    108 H108       30.2584  -45.9151  -52.6653 H         1 UNK         0.0775 
    109 H109       29.3356  -46.9831  -51.6594 H         1 UNK         0.0775 
    110 H110       28.5652  -42.6808  -51.8562 H         1 UNK         0.0840 
    111 H111       29.7621  -43.7158  -51.1179 H         1 UNK         0.0840 
    112 H112       30.9780  -47.3857  -54.1493 H         1 UNK         0.2987 
    113 H113       31.1875  -49.5633  -56.9743 H         1 UNK         0.0785 
    114 H114       33.1627  -48.0138  -57.3341 H         1 UNK         0.0798 
    115 H115       31.6522  -47.3776  -57.9487 H         1 UNK         0.0798 
    116 H116       32.3053  -46.7567  -56.4435 H         1 UNK         0.0798 
    117 H117       32.9890  -48.7140  -54.8766 H         1 UNK         0.3079 
    118 H118       32.2676  -51.4057  -52.6497 H         1 UNK         0.0794 
    119 H119       34.7216  -51.7367  -52.8855 H         1 UNK         0.0786 
    120 H120       34.7229  -50.8304  -54.3970 H         1 UNK         0.0786 
    121 H121       33.8761  -52.3680  -54.2900 H         1 UNK         0.0786 
    122 H122       34.1222  -49.1902  -52.6166 H         1 UNK         0.3032 
    123 H123       31.9045  -46.8272  -51.1478 H         1 UNK         0.1094 
    124 H124       32.5016  -48.2081  -49.1502 H         1 UNK         0.0794 
    125 H125       34.1483  -48.3778  -49.7433 H         1 UNK         0.0794 
    126 H126       33.5311  -46.7920  -49.2757 H         1 UNK         0.0794 
    127 H127       34.7149  -46.7441  -51.5430 H         1 UNK         0.3016 
@<TRIPOS>BOND
     1    1    2 1    
     2    1   67 1    
     3    1   68 1    
     4    1   69 1    
     5    2    3 2    
     6    2    4 am   BACKBONE|DICT|INTERRES
     7    4    5 1    
     8    4   70 1    
     9    5    6 1    
    10    5   65 1    
    11    5   71 1    
    12    6    7 1    
    13    6   72 1    
    14    6   73 1    
    15    7    8 1    
    16    8    9 1    
    17    8   74 1    
    18    8   75 1    
    19    9   10 ar   
    20    9   14 ar   
    21   10   11 ar   
    22   10   76 1    
    23   11   12 ar   
    24   11   48 1    
    25   12   13 ar   
    26   12   77 1    
    27   13   14 ar   
    28   13   15 1    
    29   14   78 1    
    30   15   16 1    
    31   15   79 1    
    32   15   80 1    
    33   16   17 1    
    34   17   18 1    
    35   17   81 1    
    36   17   82 1    
    37   18   19 1    
    38   18   22 1    
    39   18   83 1    
    40   19   20 am   BACKBONE|DICT|INTERRES
    41   19   21 2    
    42   20   84 1    
    43   20   85 1    
    44   22   23 am   BACKBONE|DICT|INTERRES
    45   22   86 1    
    46   23   24 2    
    47   23   25 1    
    48   25   26 1    
    49   25   27 1    
    50   25   87 1    
    51   26   88 1    
    52   26   89 1    
    53   26   90 1    
    54   27   28 am   BACKBONE|DICT|INTERRES
    55   27   91 1    
    56   28   29 2    
    57   28   30 1    
    58   30   31 1    
    59   30   32 1    
    60   30   92 1    
    61   31   93 1    
    62   31   94 1    
    63   31   95 1    
    64   32   33 am   BACKBONE|DICT|INTERRES
    65   32   96 1    
    66   33   34 2    
    67   33   35 1    
    68   35   36 1    
    69   35   37 1    
    70   35   97 1    
    71   36   98 1    
    72   36   99 1    
    73   36  100 1    
    74   37   38 am   BACKBONE|DICT|INTERRES
    75   37  101 1    
    76   38   39 2    
    77   38   40 1    
    78   40   41 1    
    79   40   42 1    
    80   40  102 1    
    81   41  103 1    
    82   41  104 1    
    83   41  105 1    
    84   42   43 am   BACKBONE|DICT|INTERRES
    85   42  106 1    
    86   43   44 2    
    87   43   45 1    
    88   45   46 1    
    89   45   49 1    
    90   45  107 1    
    91   46   47 1    
    92   46  108 1    
    93   46  109 1    
    94   47   48 1    
    95   48  110 1    
    96   48  111 1    
    97   49   50 am   BACKBONE|DICT|INTERRES
    98   49  112 1    
    99   50   51 2    
   100   50   52 1    
   101   52   53 1    
   102   52   54 1    
   103   52  113 1    
   104   53  114 1    
   105   53  115 1    
   106   53  116 1    
   107   54   55 am   BACKBONE|DICT|INTERRES
   108   54  117 1    
   109   55   56 2    
   110   55   57 1    
   111   57   58 1    
   112   57   59 1    
   113   57  118 1    
   114   58  119 1    
   115   58  120 1    
   116   58  121 1    
   117   59   60 am   BACKBONE|DICT|INTERRES
   118   59  122 1    
   119   60   61 2    
   120   60   62 1    
   121   62   63 1    
   122   62   64 1    
   123   62  123 1    
   124   63  124 1    
   125   63  125 1    
   126   63  126 1    
   127   64   65 am   BACKBONE|DICT|INTERRES
   128   64  127 1    
   129   65   66 2    
@<TRIPOS>SUBSTRUCTURE
     1 UNK         1 GROUP             0       ****    0 ROOT    
