@<TRIPOS>MOLECULE
3R134
127   129    1
SMALL
USER_CHARGES


@<TRIPOS>ATOM
      1 CA         32.0507  -49.7035  -57.4105 C.3       0 UNK        -0.1968 
      2 C          32.5038  -48.7043  -56.3585 C.2       0 UNK         0.4852 
      3 O          32.5400  -49.0425  -55.1733 O.2       0 UNK        -0.5359 
      4 N          32.8403  -47.4791  -56.7866 N.am      1 UNK        -0.4300 
      5 CA         33.2778  -46.3588  -55.9474 C.3       1 UNK         0.0863 
      6 C6         33.5341  -45.0939  -56.8091 C.3       11 UNK        -0.0953 
      7 S7         34.1131  -43.6380  -55.8672 S.3       11 UNK        -0.2369 
      8 C8         32.5831  -42.6745  -55.6684 C.3       11 UNK         0.0226 
      9 C9         31.5244  -43.3945  -54.8419 C.ar      11 UNK        -0.0699 
     10 C10        31.8093  -43.8445  -53.5473 C.ar      11 UNK        -0.0804 
     11 C11        30.8219  -44.4691  -52.7783 C.ar      11 UNK        -0.0871 
     12 C12        29.5319  -44.6051  -53.3012 C.ar      11 UNK        -0.1008 
     13 C13        29.2355  -44.1647  -54.5934 C.ar      11 UNK        -0.0735 
     14 C14        30.2412  -43.5765  -55.3650 C.ar      11 UNK        -0.0945 
     15 C15        27.8320  -44.3454  -55.1539 C.3       11 UNK         0.0169 
     16 S16        26.7459  -42.9396  -54.7740 S.3       11 UNK        -0.2669 
     17 C17        27.1576  -41.7711  -56.1145 C.3       11 UNK        -0.0850 
     18 CA         26.1325  -41.8191  -57.2791 C.3       10 UNK         0.0855 
     19 C          26.2879  -40.5849  -58.2171 C.2       10 UNK         0.5543 
     20 N          26.5403  -40.7536  -59.5098 N.am      10 UNK        -0.7343 
     21 O          26.1657  -39.4498  -57.7633 O.2       10 UNK        -0.5027 
     22 N          26.1499  -43.1149  -57.9891 N.am      10 UNK        -0.4495 
     23 C          25.0789  -43.6557  -58.5853 C.2       10 UNK         0.4903 
     24 O          23.9485  -43.1704  -58.5223 O.2       10 UNK        -0.4860 
     25 CA         25.2819  -44.9281  -59.4299 C.3       9 UNK         0.0227 
     26 CB         25.1848  -44.5888  -60.9275 C.3       9 UNK        -0.1964 
     27 N          26.5370  -45.6508  -59.1919 N.am      9 UNK        -0.4231 
     28 C          26.7618  -46.4635  -58.1513 C.2       9 UNK         0.5014 
     29 O          25.9963  -46.5758  -57.1917 O.2       9 UNK        -0.5270 
     30 CA         28.0569  -47.2930  -58.2111 C.3       8 UNK         0.0284 
     31 CB         29.2801  -46.4974  -57.7230 C.3       8 UNK        -0.1977 
     32 N          27.9234  -48.5144  -57.4145 N.am      8 UNK        -0.4342 
     33 C          27.4582  -49.6780  -57.8937 C.2       8 UNK         0.5039 
     34 O          27.1651  -49.8544  -59.0776 O.2       8 UNK        -0.5547 
     35 CA         27.3049  -50.8612  -56.9171 C.3       7 UNK         0.0281 
     36 CB         28.4516  -51.8680  -57.1067 C.3       7 UNK        -0.1963 
     37 N          27.2538  -50.4574  -55.5120 N.am      7 UNK        -0.4444 
     38 C          26.1873  -49.9156  -54.9087 C.2       7 UNK         0.5104 
     39 O          25.0892  -49.7851  -55.4499 O.2       7 UNK        -0.5100 
     40 CA         26.3730  -49.4346  -53.4547 C.3       6 UNK         0.0396 
     41 CB         25.7321  -50.4310  -52.4757 C.3       6 UNK        -0.1801 
     42 N          27.7673  -49.2056  -53.0526 N.am      6 UNK        -0.4747 
     43 C          28.6143  -48.3325  -53.6130 C.2       6 UNK         0.5012 
     44 O          28.3257  -47.6541  -54.5959 O.2       6 UNK        -0.5003 
     45 CA         30.0386  -48.2459  -53.0349 C.3       5 UNK         0.0782 
     46 C46        30.0807  -47.5838  -51.6321 C.3       11 UNK        -0.0868 
     47 S47        31.6643  -46.7166  -51.3630 S.3       11 UNK        -0.2515 
     48 C48        31.1422  -44.9677  -51.3746 C.3       11 UNK         0.0199 
     49 N          30.7476  -49.5292  -53.1156 N.am      5 UNK        -0.4607 
     50 C          30.4905  -50.6749  -52.4663 C.2       4 UNK         0.5031 
     51 O          29.5996  -50.8060  -51.6262 O.2       4 UNK        -0.5119 
     52 CA         31.3425  -51.8976  -52.8447 C.3       4 UNK         0.0263 
     53 CB         30.6546  -52.6975  -53.9626 C.3       4 UNK        -0.1967 
     54 N          32.6919  -51.5323  -53.2767 N.am      4 UNK        -0.4237 
     55 C          33.6799  -51.1757  -52.4470 C.2       3 UNK         0.4908 
     56 O          33.5827  -51.1844  -51.2192 O.2       3 UNK        -0.5102 
     57 CA         34.9863  -50.6987  -53.0902 C.3       3 UNK         0.0241 
     58 CB         35.2563  -51.3031  -54.4839 C.3       3 UNK        -0.1971 
     59 N          34.9029  -49.2477  -53.2001 N.am      3 UNK        -0.4139 
     60 C          35.6743  -48.3695  -52.5477 C.2       2 UNK         0.5016 
     61 O          36.6108  -48.6971  -51.8163 O.2       2 UNK        -0.5319 
     62 CA         35.3386  -46.8712  -52.7084 C.3       2 UNK         0.0286 
     63 CB         36.6033  -46.0009  -52.8687 C.3       2 UNK        -0.1963 
     64 N          34.3592  -46.5722  -53.7631 N.am      2 UNK        -0.4790 
     65 C          34.5006  -46.7431  -55.0865 C.2       1 UNK         0.5024 
     66 O          35.5129  -47.1893  -55.6306 O.2       1 UNK        -0.4888 
     67 H67        32.4821  -49.4811  -58.3862 H         1 UNK         0.0892 
     68 H68        32.3513  -50.7131  -57.1322 H         1 UNK         0.0892 
     69 H69        30.9656  -49.6797  -57.5021 H         1 UNK         0.0892 
     70 H70        32.8221  -47.2906  -57.7780 H         1 UNK         0.3107 
     71 H71        32.4433  -46.1409  -55.2778 H         1 UNK         0.0773 
     72 H72        34.2863  -45.3080  -57.5707 H         1 UNK         0.0680 
     73 H73        32.6271  -44.8247  -57.3529 H         1 UNK         0.0680 
     74 H74        32.8270  -41.7319  -55.1769 H         1 UNK         0.0650 
     75 H75        32.2014  -42.4146  -56.6570 H         1 UNK         0.0650 
     76 H76        32.8017  -43.7052  -53.1404 H         1 UNK         0.1397 
     77 H77        28.7499  -45.0563  -52.7078 H         1 UNK         0.1363 
     78 H78        30.0224  -43.2437  -56.3693 H         1 UNK         0.1355 
     79 H79        27.8680  -44.4925  -56.2313 H         1 UNK         0.0707 
     80 H80        27.3788  -45.2473  -54.7419 H         1 UNK         0.0707 
     81 H81        28.1683  -41.9414  -56.4825 H         1 UNK         0.1034 
     82 H82        27.1749  -40.7777  -55.6618 H         1 UNK         0.1034 
     83 H83        25.1462  -41.6992  -56.8263 H         1 UNK         0.0482 
     84 H84        26.6346  -41.6776  -59.8974 H         1 UNK         0.3460 
     85 H85        26.6324  -39.9444  -60.1038 H         1 UNK         0.3460 
     86 H86        27.0461  -43.5615  -58.1028 H         1 UNK         0.2989 
     87 H87        24.4557  -45.6009  -59.1889 H         1 UNK         0.0559 
     88 H88        25.9954  -43.9343  -61.2497 H         1 UNK         0.0848 
     89 H89        24.2469  -44.0796  -61.1549 H         1 UNK         0.0848 
     90 H90        25.2148  -45.4890  -61.5419 H         1 UNK         0.0848 
     91 H91        27.2263  -45.6085  -59.9296 H         1 UNK         0.3144 
     92 H92        28.2338  -47.5589  -59.2557 H         1 UNK         0.0727 
     93 H93        30.2021  -47.0292  -57.9537 H         1 UNK         0.0790 
     94 H94        29.2613  -46.3333  -56.6469 H         1 UNK         0.0790 
     95 H95        29.3446  -45.5219  -58.2062 H         1 UNK         0.0790 
     96 H96        28.0368  -48.3986  -56.4115 H         1 UNK         0.3215 
     97 H97        26.3679  -51.3654  -57.1644 H         1 UNK         0.0863 
     98 H98        28.3244  -52.7418  -56.4672 H         1 UNK         0.0808 
     99 H99        29.4209  -51.4239  -56.8831 H         1 UNK         0.0808 
    100 H100       28.4890  -52.2259  -58.1366 H         1 UNK         0.0808 
    101 H101       28.1066  -50.5307  -54.9786 H         1 UNK         0.3118 
    102 H102       25.8487  -48.4811  -53.3652 H         1 UNK         0.0546 
    103 H103       25.7612  -50.0571  -51.4521 H         1 UNK         0.0828 
    104 H104       26.2388  -51.3968  -52.4952 H         1 UNK         0.0828 
    105 H105       24.6845  -50.6067  -52.7243 H         1 UNK         0.0828 
    106 H106       28.1344  -49.7836  -52.3000 H         1 UNK         0.3005 
    107 H107       30.5688  -47.5855  -53.7246 H         1 UNK         0.1257 
    108 H108       29.2619  -46.8775  -51.4940 H         1 UNK         0.0775 
    109 H109       29.9513  -48.3215  -50.8397 H         1 UNK         0.0775 
    110 H110       30.2824  -44.8325  -50.7165 H         1 UNK         0.0840 
    111 H111       31.9428  -44.3645  -50.9435 H         1 UNK         0.0840 
    112 H112       31.4909  -49.5334  -53.8125 H         1 UNK         0.2987 
    113 H113       31.4158  -52.5365  -51.9617 H         1 UNK         0.0785 
    114 H114       31.1936  -53.6203  -54.1774 H         1 UNK         0.0798 
    115 H115       30.5914  -52.1241  -54.8873 H         1 UNK         0.0798 
    116 H116       29.6387  -52.9763  -53.6784 H         1 UNK         0.0798 
    117 H117       32.8516  -51.4572  -54.2711 H         1 UNK         0.3079 
    118 H118       35.8007  -50.9979  -52.4270 H         1 UNK         0.0794 
    119 H119       35.2267  -52.3932  -54.4532 H         1 UNK         0.0786 
    120 H120       36.2472  -51.0200  -54.8395 H         1 UNK         0.0786 
    121 H121       34.5383  -50.9686  -55.2330 H         1 UNK         0.0786 
    122 H122       34.1429  -48.8917  -53.7695 H         1 UNK         0.3032 
    123 H123       34.8618  -46.5811  -51.7705 H         1 UNK         0.1094 
    124 H124       37.2574  -46.0965  -52.0012 H         1 UNK         0.0794 
    125 H125       37.1857  -46.2876  -53.7446 H         1 UNK         0.0794 
    126 H126       36.3489  -44.9453  -52.9652 H         1 UNK         0.0794 
    127 H127       33.4696  -46.2288  -53.4259 H         1 UNK         0.3016 
@<TRIPOS>BOND
     1    1    2 1    
     2    1   67 1    
     3    1   68 1    
     4    1   69 1    
     5    2    3 2    
     6    2    4 am   BACKBONE|DICT|INTERRES
     7    4    5 1    
     8    4   70 1    
     9    5    6 1    
    10    5   65 1    
    11    5   71 1    
    12    6    7 1    
    13    6   72 1    
    14    6   73 1    
    15    7    8 1    
    16    8    9 1    
    17    8   74 1    
    18    8   75 1    
    19    9   10 ar   
    20    9   14 ar   
    21   10   11 ar   
    22   10   76 1    
    23   11   12 ar   
    24   11   48 1    
    25   12   13 ar   
    26   12   77 1    
    27   13   14 ar   
    28   13   15 1    
    29   14   78 1    
    30   15   16 1    
    31   15   79 1    
    32   15   80 1    
    33   16   17 1    
    34   17   18 1    
    35   17   81 1    
    36   17   82 1    
    37   18   19 1    
    38   18   22 1    
    39   18   83 1    
    40   19   20 am   BACKBONE|DICT|INTERRES
    41   19   21 2    
    42   20   84 1    
    43   20   85 1    
    44   22   23 am   BACKBONE|DICT|INTERRES
    45   22   86 1    
    46   23   24 2    
    47   23   25 1    
    48   25   26 1    
    49   25   27 1    
    50   25   87 1    
    51   26   88 1    
    52   26   89 1    
    53   26   90 1    
    54   27   28 am   BACKBONE|DICT|INTERRES
    55   27   91 1    
    56   28   29 2    
    57   28   30 1    
    58   30   31 1    
    59   30   32 1    
    60   30   92 1    
    61   31   93 1    
    62   31   94 1    
    63   31   95 1    
    64   32   33 am   BACKBONE|DICT|INTERRES
    65   32   96 1    
    66   33   34 2    
    67   33   35 1    
    68   35   36 1    
    69   35   37 1    
    70   35   97 1    
    71   36   98 1    
    72   36   99 1    
    73   36  100 1    
    74   37   38 am   BACKBONE|DICT|INTERRES
    75   37  101 1    
    76   38   39 2    
    77   38   40 1    
    78   40   41 1    
    79   40   42 1    
    80   40  102 1    
    81   41  103 1    
    82   41  104 1    
    83   41  105 1    
    84   42   43 am   BACKBONE|DICT|INTERRES
    85   42  106 1    
    86   43   44 2    
    87   43   45 1    
    88   45   46 1    
    89   45   49 1    
    90   45  107 1    
    91   46   47 1    
    92   46  108 1    
    93   46  109 1    
    94   47   48 1    
    95   48  110 1    
    96   48  111 1    
    97   49   50 am   BACKBONE|DICT|INTERRES
    98   49  112 1    
    99   50   51 2    
   100   50   52 1    
   101   52   53 1    
   102   52   54 1    
   103   52  113 1    
   104   53  114 1    
   105   53  115 1    
   106   53  116 1    
   107   54   55 am   BACKBONE|DICT|INTERRES
   108   54  117 1    
   109   55   56 2    
   110   55   57 1    
   111   57   58 1    
   112   57   59 1    
   113   57  118 1    
   114   58  119 1    
   115   58  120 1    
   116   58  121 1    
   117   59   60 am   BACKBONE|DICT|INTERRES
   118   59  122 1    
   119   60   61 2    
   120   60   62 1    
   121   62   63 1    
   122   62   64 1    
   123   62  123 1    
   124   63  124 1    
   125   63  125 1    
   126   63  126 1    
   127   64   65 am   BACKBONE|DICT|INTERRES
   128   64  127 1    
   129   65   66 2    
@<TRIPOS>SUBSTRUCTURE
     1 UNK         1 GROUP             0       ****    0 ROOT    
