@<TRIPOS>MOLECULE
3R134
127   129    1
SMALL
USER_CHARGES


@<TRIPOS>ATOM
      1 CA         36.8621  -45.2639  -48.7158 C.3       0 UNK        -0.1968 
      2 C          36.1800  -45.4463  -50.0646 C.2       0 UNK         0.4852 
      3 O          35.2668  -46.2652  -50.1734 O.2       0 UNK        -0.5359 
      4 N          36.6174  -44.6812  -51.0762 N.am      1 UNK        -0.4300 
      5 CA         36.1656  -44.7054  -52.4749 C.3       1 UNK         0.0863 
      6 C6         34.6294  -44.5052  -52.6239 C.3       11 UNK        -0.0953 
      7 S7         34.1557  -43.6846  -54.1872 S.3       11 UNK        -0.2369 
      8 C8         32.8015  -44.7502  -54.7811 C.3       11 UNK         0.0226 
      9 C9         31.4394  -44.3292  -54.2410 C.ar      11 UNK        -0.0699 
     10 C10        31.1581  -44.3852  -52.8715 C.ar      11 UNK        -0.0804 
     11 C11        29.9016  -44.0111  -52.3845 C.ar      11 UNK        -0.0871 
     12 C12        28.9125  -43.5953  -53.2799 C.ar      11 UNK        -0.1008 
     13 C13        29.1727  -43.5581  -54.6522 C.ar      11 UNK        -0.0735 
     14 C14        30.4404  -43.9110  -55.1248 C.ar      11 UNK        -0.0945 
     15 C15        28.0788  -43.1515  -55.6277 C.3       11 UNK         0.0169 
     16 S16        26.8320  -44.4629  -55.8507 S.3       11 UNK        -0.2669 
     17 C17        27.8298  -45.8475  -56.5061 C.3       11 UNK        -0.0850 
     18 CA         28.1057  -45.7151  -58.0257 C.3       10 UNK         0.0855 
     19 C          29.1672  -46.7481  -58.5049 C.2       10 UNK         0.5543 
     20 N          28.8699  -47.6405  -59.4433 N.am      10 UNK        -0.7343 
     21 O          30.2980  -46.7214  -58.0284 O.2       10 UNK        -0.5027 
     22 N          26.8597  -45.7214  -58.8067 N.am      10 UNK        -0.4495 
     23 C          26.7200  -45.1568  -60.0137 C.2       10 UNK         0.4903 
     24 O          27.5973  -44.4800  -60.5532 O.2       10 UNK        -0.4860 
     25 CA         25.3793  -45.3914  -60.7451 C.3       9 UNK         0.0227 
     26 CB         25.5065  -45.2409  -62.2764 C.3       9 UNK        -0.1964 
     27 N          24.7371  -46.6695  -60.4067 N.am      9 UNK        -0.4231 
     28 C          25.2661  -47.8948  -60.5366 C.2       9 UNK         0.5014 
     29 O          26.3860  -48.1273  -60.9980 O.2       9 UNK        -0.5270 
     30 CA         24.4176  -49.0593  -60.0044 C.3       8 UNK         0.0284 
     31 CB         24.0843  -50.0562  -61.1270 C.3       8 UNK        -0.1977 
     32 N          25.1063  -49.7578  -58.9169 N.am      8 UNK        -0.4342 
     33 C          25.4463  -49.2052  -57.7452 C.2       8 UNK         0.5039 
     34 O          25.2087  -48.0328  -57.4378 O.2       8 UNK        -0.5547 
     35 CA         26.1826  -50.1113  -56.7550 C.3       7 UNK         0.0281 
     36 CB         27.7034  -50.0742  -56.9871 C.3       7 UNK        -0.1963 
     37 N          25.8776  -49.6625  -55.4007 N.am      7 UNK        -0.4444 
     38 C          25.8081  -50.4505  -54.3247 C.2       7 UNK         0.5104 
     39 O          26.0520  -51.6585  -54.3436 O.2       7 UNK        -0.5100 
     40 CA         25.4384  -49.7600  -53.0014 C.3       6 UNK         0.0396 
     41 CB         25.0326  -50.7623  -51.9048 C.3       6 UNK        -0.1801 
     42 N          26.5776  -48.9776  -52.5289 N.am      6 UNK        -0.4747 
     43 C          26.8374  -47.7059  -52.8633 C.2       6 UNK         0.5012 
     44 O          26.0801  -47.0156  -53.5438 O.2       6 UNK        -0.5003 
     45 CA         28.1743  -47.1201  -52.3628 C.3       5 UNK         0.0782 
     46 C46        27.9651  -46.3650  -51.0245 C.3       11 UNK        -0.0868 
     47 S47        29.5178  -45.7668  -50.2712 S.3       11 UNK        -0.2515 
     48 C48        29.6157  -44.0583  -50.8908 C.3       11 UNK         0.0199 
     49 N          29.2153  -48.1522  -52.2730 N.am      5 UNK        -0.4607 
     50 C          29.8039  -48.7126  -53.3354 C.2       4 UNK         0.5031 
     51 O          29.5317  -48.4255  -54.5025 O.2       4 UNK        -0.5119 
     52 CA         30.8329  -49.8155  -53.0409 C.3       4 UNK         0.0263 
     53 CB         30.1474  -51.1924  -53.0379 C.3       4 UNK        -0.1967 
     54 N          31.8996  -49.8114  -54.0420 N.am      4 UNK        -0.4237 
     55 C          32.8641  -48.8858  -54.1042 C.2       3 UNK         0.4908 
     56 O          33.0444  -48.0192  -53.2445 O.2       3 UNK        -0.5102 
     57 CA         33.7653  -48.9312  -55.3441 C.3       3 UNK         0.0241 
     58 CB         32.9763  -48.5766  -56.6206 C.3       3 UNK        -0.1971 
     59 N          34.8633  -47.9836  -55.1749 N.am      3 UNK        -0.4139 
     60 C          36.0640  -48.0632  -55.7578 C.2       2 UNK         0.5016 
     61 O          36.4000  -48.9927  -56.4937 O.2       2 UNK        -0.5319 
     62 CA         37.0566  -46.9100  -55.5124 C.3       2 UNK         0.0286 
     63 CB         37.4110  -46.2137  -56.8390 C.3       2 UNK        -0.1963 
     64 N          36.5609  -45.8938  -54.5771 N.am      2 UNK        -0.4790 
     65 C          36.7003  -45.9368  -53.2466 C.2       1 UNK         0.5024 
     66 O          37.2516  -46.8705  -52.6589 O.2       1 UNK        -0.4888 
     67 H67        37.6398  -44.5010  -48.7496 H         1 UNK         0.0892 
     68 H68        36.1316  -44.9692  -47.9628 H         1 UNK         0.0892 
     69 H69        37.3202  -46.2004  -48.3984 H         1 UNK         0.0892 
     70 H70        37.3884  -44.0520  -50.8992 H         1 UNK         0.3107 
     71 H71        36.6585  -43.8398  -52.9211 H         1 UNK         0.0773 
     72 H72        34.1058  -45.4560  -52.5101 H         1 UNK         0.0680 
     73 H73        34.2584  -43.8660  -51.8211 H         1 UNK         0.0680 
     74 H74        32.9921  -45.7888  -54.5212 H         1 UNK         0.0650 
     75 H75        32.8022  -44.7145  -55.8717 H         1 UNK         0.0650 
     76 H76        31.9129  -44.7251  -52.1777 H         1 UNK         0.1397 
     77 H77        27.9322  -43.3193  -52.9155 H         1 UNK         0.1363 
     78 H78        30.6410  -43.8834  -56.1872 H         1 UNK         0.1355 
     79 H79        28.5019  -42.8861  -56.5975 H         1 UNK         0.0707 
     80 H80        27.5817  -42.2534  -55.2584 H         1 UNK         0.0707 
     81 H81        27.2947  -46.7753  -56.2995 H         1 UNK         0.1034 
     82 H82        28.7577  -45.9264  -55.9382 H         1 UNK         0.1034 
     83 H83        28.5795  -44.7434  -58.1753 H         1 UNK         0.0482 
     84 H84        29.5826  -48.2855  -59.7426 H         1 UNK         0.3460 
     85 H85        27.9560  -47.6642  -59.8834 H         1 UNK         0.3460 
     86 H86        26.1079  -46.2883  -58.4310 H         1 UNK         0.2989 
     87 H87        24.7051  -44.6099  -60.3918 H         1 UNK         0.0559 
     88 H88        25.8524  -44.2422  -62.5461 H         1 UNK         0.0848 
     89 H89        24.5479  -45.3931  -62.7722 H         1 UNK         0.0848 
     90 H90        26.2176  -45.9544  -62.6945 H         1 UNK         0.0848 
     91 H91        23.8267  -46.5939  -59.9729 H         1 UNK         0.3144 
     92 H92        23.4785  -48.6679  -59.6072 H         1 UNK         0.0727 
     93 H93        24.9838  -50.5096  -61.5463 H         1 UNK         0.0790 
     94 H94        23.5593  -49.5602  -61.9447 H         1 UNK         0.0790 
     95 H95        23.4387  -50.8584  -60.7688 H         1 UNK         0.0790 
     96 H96        25.3764  -50.7136  -59.0996 H         1 UNK         0.3215 
     97 H97        25.8197  -51.1328  -56.8903 H         1 UNK         0.0863 
     98 H98        28.2241  -50.7527  -56.3113 H         1 UNK         0.0808 
     99 H99        28.1096  -49.0754  -56.8268 H         1 UNK         0.0808 
    100 H100       27.9561  -50.3705  -58.0059 H         1 UNK         0.0808 
    101 H101       25.6472  -48.6776  -55.3205 H         1 UNK         0.3118 
    102 H102       24.5842  -49.1050  -53.1870 H         1 UNK         0.0546 
    103 H103       25.8466  -51.4429  -51.6518 H         1 UNK         0.0828 
    104 H104       24.1872  -51.3711  -52.2281 H         1 UNK         0.0828 
    105 H105       24.7302  -50.2489  -50.9920 H         1 UNK         0.0828 
    106 H106       27.2757  -49.4778  -51.9980 H         1 UNK         0.3005 
    107 H107       28.4963  -46.3965  -53.1152 H         1 UNK         0.1257 
    108 H108       27.4838  -47.0158  -50.2918 H         1 UNK         0.0775 
    109 H109       27.2873  -45.5210  -51.1665 H         1 UNK         0.0775 
    110 H110       28.6936  -43.5276  -50.6483 H         1 UNK         0.0840 
    111 H111       30.4138  -43.5375  -50.3595 H         1 UNK         0.0840 
    112 H112       29.5081  -48.4123  -51.3422 H         1 UNK         0.2987 
    113 H113       31.2761  -49.6396  -52.0579 H         1 UNK         0.0785 
    114 H114       29.3731  -51.2430  -52.2713 H         1 UNK         0.0798 
    115 H115       30.8596  -51.9911  -52.8296 H         1 UNK         0.0798 
    116 H116       29.6695  -51.4081  -53.9950 H         1 UNK         0.0798 
    117 H117       31.7971  -50.4597  -54.8091 H         1 UNK         0.3079 
    118 H118       34.1689  -49.9427  -55.4282 H         1 UNK         0.0794 
    119 H119       33.6120  -48.6119  -57.5055 H         1 UNK         0.0786 
    120 H120       32.5462  -47.5757  -56.5596 H         1 UNK         0.0786 
    121 H121       32.1528  -49.2711  -56.7907 H         1 UNK         0.0786 
    122 H122       34.6850  -47.2463  -54.5057 H         1 UNK         0.3032 
    123 H123       37.9692  -47.3565  -55.1093 H         1 UNK         0.1094 
    124 H124       36.5336  -45.7629  -57.3056 H         1 UNK         0.0794 
    125 H125       38.1538  -45.4294  -56.6899 H         1 UNK         0.0794 
    126 H126       37.8327  -46.9214  -57.5544 H         1 UNK         0.0794 
    127 H127       36.0838  -45.0987  -54.9825 H         1 UNK         0.3016 
@<TRIPOS>BOND
     1    1    2 1    
     2    1   67 1    
     3    1   68 1    
     4    1   69 1    
     5    2    3 2    
     6    2    4 am   BACKBONE|DICT|INTERRES
     7    4    5 1    
     8    4   70 1    
     9    5    6 1    
    10    5   65 1    
    11    5   71 1    
    12    6    7 1    
    13    6   72 1    
    14    6   73 1    
    15    7    8 1    
    16    8    9 1    
    17    8   74 1    
    18    8   75 1    
    19    9   10 ar   
    20    9   14 ar   
    21   10   11 ar   
    22   10   76 1    
    23   11   12 ar   
    24   11   48 1    
    25   12   13 ar   
    26   12   77 1    
    27   13   14 ar   
    28   13   15 1    
    29   14   78 1    
    30   15   16 1    
    31   15   79 1    
    32   15   80 1    
    33   16   17 1    
    34   17   18 1    
    35   17   81 1    
    36   17   82 1    
    37   18   19 1    
    38   18   22 1    
    39   18   83 1    
    40   19   20 am   BACKBONE|DICT|INTERRES
    41   19   21 2    
    42   20   84 1    
    43   20   85 1    
    44   22   23 am   BACKBONE|DICT|INTERRES
    45   22   86 1    
    46   23   24 2    
    47   23   25 1    
    48   25   26 1    
    49   25   27 1    
    50   25   87 1    
    51   26   88 1    
    52   26   89 1    
    53   26   90 1    
    54   27   28 am   BACKBONE|DICT|INTERRES
    55   27   91 1    
    56   28   29 2    
    57   28   30 1    
    58   30   31 1    
    59   30   32 1    
    60   30   92 1    
    61   31   93 1    
    62   31   94 1    
    63   31   95 1    
    64   32   33 am   BACKBONE|DICT|INTERRES
    65   32   96 1    
    66   33   34 2    
    67   33   35 1    
    68   35   36 1    
    69   35   37 1    
    70   35   97 1    
    71   36   98 1    
    72   36   99 1    
    73   36  100 1    
    74   37   38 am   BACKBONE|DICT|INTERRES
    75   37  101 1    
    76   38   39 2    
    77   38   40 1    
    78   40   41 1    
    79   40   42 1    
    80   40  102 1    
    81   41  103 1    
    82   41  104 1    
    83   41  105 1    
    84   42   43 am   BACKBONE|DICT|INTERRES
    85   42  106 1    
    86   43   44 2    
    87   43   45 1    
    88   45   46 1    
    89   45   49 1    
    90   45  107 1    
    91   46   47 1    
    92   46  108 1    
    93   46  109 1    
    94   47   48 1    
    95   48  110 1    
    96   48  111 1    
    97   49   50 am   BACKBONE|DICT|INTERRES
    98   49  112 1    
    99   50   51 2    
   100   50   52 1    
   101   52   53 1    
   102   52   54 1    
   103   52  113 1    
   104   53  114 1    
   105   53  115 1    
   106   53  116 1    
   107   54   55 am   BACKBONE|DICT|INTERRES
   108   54  117 1    
   109   55   56 2    
   110   55   57 1    
   111   57   58 1    
   112   57   59 1    
   113   57  118 1    
   114   58  119 1    
   115   58  120 1    
   116   58  121 1    
   117   59   60 am   BACKBONE|DICT|INTERRES
   118   59  122 1    
   119   60   61 2    
   120   60   62 1    
   121   62   63 1    
   122   62   64 1    
   123   62  123 1    
   124   63  124 1    
   125   63  125 1    
   126   63  126 1    
   127   64   65 am   BACKBONE|DICT|INTERRES
   128   64  127 1    
   129   65   66 2    
@<TRIPOS>SUBSTRUCTURE
     1 UNK         1 GROUP             0       ****    0 ROOT    
