@<TRIPOS>MOLECULE
3R134
127   129    1
SMALL
USER_CHARGES


@<TRIPOS>ATOM
      1 CA         31.9645  -49.4725  -58.1719 C.3       0 UNK        -0.1968 
      2 C          32.4132  -48.9771  -56.8064 C.2       0 UNK         0.4852 
      3 O          32.3649  -49.7385  -55.8412 O.2       0 UNK        -0.5359 
      4 N          32.8712  -47.7187  -56.7252 N.am      1 UNK        -0.4300 
      5 CA         33.2717  -47.0050  -55.4999 C.3       1 UNK         0.0863 
      6 C6         33.7872  -45.5724  -55.8012 C.3       11 UNK        -0.0953 
      7 S7         32.7211  -44.6202  -56.9365 S.3       11 UNK        -0.2369 
      8 C8         32.5491  -43.0287  -56.0724 C.3       11 UNK         0.0226 
      9 C9         31.4274  -43.0490  -55.0449 C.ar      11 UNK        -0.0699 
     10 C10        31.7127  -43.1042  -53.6769 C.ar      11 UNK        -0.0804 
     11 C11        30.6774  -43.0656  -52.7374 C.ar      11 UNK        -0.0871 
     12 C12        29.3534  -42.9718  -53.1764 C.ar      11 UNK        -0.1008 
     13 C13        29.0520  -42.9466  -54.5400 C.ar      11 UNK        -0.0735 
     14 C14        30.0967  -42.9775  -55.4688 C.ar      11 UNK        -0.0945 
     15 C15        27.5963  -42.9274  -54.9910 C.3       11 UNK         0.0169 
     16 S16        27.1629  -41.4285  -55.9325 S.3       11 UNK        -0.2669 
     17 C17        27.1307  -42.0957  -57.6309 C.3       11 UNK        -0.0850 
     18 CA         25.7715  -42.7834  -57.9722 C.3       10 UNK         0.0855 
     19 C          24.7508  -41.8422  -58.6840 C.2       10 UNK         0.5543 
     20 N          23.8921  -42.3500  -59.5600 N.am      10 UNK        -0.7343 
     21 O          24.7127  -40.6425  -58.4225 O.2       10 UNK        -0.5027 
     22 N          25.9644  -44.0992  -58.6048 N.am      10 UNK        -0.4495 
     23 C          26.5391  -44.3327  -59.7903 C.2       10 UNK         0.4903 
     24 O          26.9640  -43.4498  -60.5368 O.2       10 UNK        -0.4860 
     25 CA         26.7089  -45.8156  -60.1687 C.3       9 UNK         0.0227 
     26 CB         27.0753  -46.0089  -61.6521 C.3       9 UNK        -0.1964 
     27 N          27.7402  -46.4382  -59.3356 N.am      9 UNK        -0.4231 
     28 C          27.5685  -46.8506  -58.0730 C.2       9 UNK         0.5014 
     29 O          26.4909  -46.7968  -57.4736 O.2       9 UNK        -0.5270 
     30 CA         28.8349  -47.3306  -57.3449 C.3       8 UNK         0.0284 
     31 CB         29.4845  -46.1538  -56.6066 C.3       8 UNK        -0.1977 
     32 N          28.5673  -48.3890  -56.3746 N.am      8 UNK        -0.4342 
     33 C          28.1162  -49.6163  -56.6616 C.2       8 UNK         0.5039 
     34 O          27.9213  -50.0257  -57.8073 O.2       8 UNK        -0.5547 
     35 CA         27.8521  -50.5564  -55.4739 C.3       7 UNK         0.0281 
     36 CB         29.0307  -51.5277  -55.2870 C.3       7 UNK        -0.1963 
     37 N          27.6175  -49.8229  -54.2249 N.am      7 UNK        -0.4444 
     38 C          26.4192  -49.3644  -53.8320 C.2       7 UNK         0.5104 
     39 O          25.3804  -49.5464  -54.4675 O.2       7 UNK        -0.5100 
     40 CA         26.3453  -48.5935  -52.4984 C.3       6 UNK         0.0396 
     41 CB         25.8234  -49.5134  -51.3827 C.3       6 UNK        -0.1801 
     42 N          27.6264  -48.0209  -52.0794 N.am      6 UNK        -0.4747 
     43 C          28.1748  -46.9082  -52.5911 C.2       6 UNK         0.5012 
     44 O          27.6184  -46.2000  -53.4286 O.2       6 UNK        -0.5003 
     45 CA         29.6042  -46.5535  -52.1201 C.3       5 UNK         0.0782 
     46 C46        29.5672  -45.5542  -50.9392 C.3       11 UNK        -0.0868 
     47 S47        31.2121  -44.8194  -50.6443 S.3       11 UNK        -0.2515 
     48 C48        30.9845  -43.1140  -51.2468 C.3       11 UNK         0.0199 
     49 N          30.3938  -47.7453  -51.7768 N.am      5 UNK        -0.4607 
     50 C          30.6943  -48.7334  -52.6249 C.2       4 UNK         0.5031 
     51 O          30.3720  -48.7294  -53.8129 O.2       4 UNK        -0.5119 
     52 CA         31.3367  -49.9780  -52.0106 C.3       4 UNK         0.0263 
     53 CB         30.2309  -50.9144  -51.4757 C.3       4 UNK        -0.1967 
     54 N          32.1585  -50.6557  -53.0109 N.am      4 UNK        -0.4237 
     55 C          32.9993  -51.6682  -52.7547 C.2       3 UNK         0.4908 
     56 O          33.1521  -52.1750  -51.6424 O.2       3 UNK        -0.5102 
     57 CA         33.8485  -52.1787  -53.9252 C.3       3 UNK         0.0241 
     58 CB         32.9912  -52.9154  -54.9698 C.3       3 UNK        -0.1971 
     59 N          34.5635  -51.0628  -54.5415 N.am      3 UNK        -0.4139 
     60 C          35.7370  -50.5870  -54.0988 C.2       2 UNK         0.5016 
     61 O          36.3974  -51.1190  -53.2052 O.2       2 UNK        -0.5319 
     62 CA         36.2794  -49.3029  -54.7525 C.3       2 UNK         0.0286 
     63 CB         37.3240  -49.6467  -55.8268 C.3       2 UNK        -0.1963 
     64 N          35.2386  -48.4644  -55.3499 N.am      2 UNK        -0.4790 
     65 C          34.3282  -47.7577  -54.6628 C.2       1 UNK         0.5024 
     66 O          34.2947  -47.6937  -53.4338 O.2       1 UNK        -0.4888 
     67 H67        32.6246  -50.2681  -58.5158 H         1 UNK         0.0892 
     68 H68        30.9536  -49.8744  -58.1082 H         1 UNK         0.0892 
     69 H69        31.9685  -48.6775  -58.9171 H         1 UNK         0.0892 
     70 H70        32.8905  -47.1491  -57.5594 H         1 UNK         0.3107 
     71 H71        32.3776  -46.9232  -54.8787 H         1 UNK         0.0773 
     72 H72        34.7795  -45.6077  -56.2556 H         1 UNK         0.0680 
     73 H73        33.9026  -45.0193  -54.8673 H         1 UNK         0.0680 
     74 H74        32.3353  -42.2566  -56.8129 H         1 UNK         0.0650 
     75 H75        33.4991  -42.7496  -55.6141 H         1 UNK         0.0650 
     76 H76        32.7389  -43.1662  -53.3416 H         1 UNK         0.1397 
     77 H77        28.5498  -42.9362  -52.4542 H         1 UNK         0.1363 
     78 H78        29.8796  -42.9471  -56.5262 H         1 UNK         0.1355 
     79 H79        27.3872  -43.8219  -55.5790 H         1 UNK         0.0707 
     80 H80        26.9316  -42.9844  -54.1276 H         1 UNK         0.0707 
     81 H81        27.3597  -41.2935  -58.3350 H         1 UNK         0.1034 
     82 H82        27.9578  -42.7984  -57.7326 H         1 UNK         0.1034 
     83 H83        25.2766  -43.0348  -57.0336 H         1 UNK         0.0482 
     84 H84        23.2273  -41.7416  -60.0117 H         1 UNK         0.3460 
     85 H85        23.9059  -43.3339  -59.7754 H         1 UNK         0.3460 
     86 H86        25.6955  -44.9044  -58.0497 H         1 UNK         0.2989 
     87 H87        25.7549  -46.3179  -59.9942 H         1 UNK         0.0559 
     88 H88        28.0338  -45.5504  -61.8991 H         1 UNK         0.0848 
     89 H89        26.3228  -45.5583  -62.3007 H         1 UNK         0.0848 
     90 H90        27.1328  -47.0661  -61.9119 H         1 UNK         0.0848 
     91 H91        28.6678  -46.4770  -59.7335 H         1 UNK         0.3144 
     92 H92        29.5400  -47.7217  -58.0802 H         1 UNK         0.0727 
     93 H93        29.7605  -45.3593  -57.3004 H         1 UNK         0.0790 
     94 H94        30.3879  -46.4598  -56.0827 H         1 UNK         0.0790 
     95 H95        28.8088  -45.7242  -55.8671 H         1 UNK         0.0790 
     96 H96        28.7330  -48.1637  -55.4035 H         1 UNK         0.3215 
     97 H97        26.9663  -51.1482  -55.7152 H         1 UNK         0.0863 
     98 H98        29.9608  -51.0024  -55.0705 H         1 UNK         0.0808 
     99 H99        29.1976  -52.1138  -56.1917 H         1 UNK         0.0808 
    100 H100       28.8432  -52.2319  -54.4768 H         1 UNK         0.0808 
    101 H101       28.4398  -49.5778  -53.6882 H         1 UNK         0.3118 
    102 H102       25.6282  -47.7801  -52.6292 H         1 UNK         0.0546 
    103 H103       26.4986  -50.3498  -51.1978 H         1 UNK         0.0828 
    104 H104       24.8512  -49.9328  -51.6458 H         1 UNK         0.0828 
    105 H105       25.6955  -48.9699  -50.4464 H         1 UNK         0.0828 
    106 H106       28.1458  -48.5303  -51.3796 H         1 UNK         0.3005 
    107 H107       30.0907  -46.0692  -52.9711 H         1 UNK         0.1257 
    108 H108       29.2427  -46.0536  -50.0245 H         1 UNK         0.0775 
    109 H109       28.8397  -44.7602  -51.1080 H         1 UNK         0.0775 
    110 H110       30.1907  -42.6306  -50.6749 H         1 UNK         0.0840 
    111 H111       31.8921  -42.5444  -51.0414 H         1 UNK         0.0840 
    112 H112       30.6949  -47.8125  -50.8152 H         1 UNK         0.2987 
    113 H113       31.9849  -49.6660  -51.1890 H         1 UNK         0.0785 
    114 H114       29.5831  -50.3986  -50.7661 H         1 UNK         0.0798 
    115 H115       30.6455  -51.7737  -50.9497 H         1 UNK         0.0798 
    116 H116       29.5999  -51.2927  -52.2801 H         1 UNK         0.0798 
    117 H117       32.0956  -50.2728  -53.9544 H         1 UNK         0.3079 
    118 H118       34.5722  -52.8958  -53.5311 H         1 UNK         0.0794 
    119 H119       32.4909  -53.7746  -54.5214 H         1 UNK         0.0786 
    120 H120       33.6041  -53.2891  -55.7900 H         1 UNK         0.0786 
    121 H121       32.2164  -52.2791  -55.3966 H         1 UNK         0.0786 
    122 H122       34.0396  -50.5223  -55.2235 H         1 UNK         0.3032 
    123 H123       36.7715  -48.7245  -53.9670 H         1 UNK         0.1094 
    124 H124       38.1318  -50.2480  -55.4068 H         1 UNK         0.0794 
    125 H125       36.8873  -50.2166  -56.6480 H         1 UNK         0.0794 
    126 H126       37.7766  -48.7468  -56.2438 H         1 UNK         0.0794 
    127 H127       35.1825  -48.4556  -56.3584 H         1 UNK         0.3016 
@<TRIPOS>BOND
     1    1    2 1    
     2    1   67 1    
     3    1   68 1    
     4    1   69 1    
     5    2    3 2    
     6    2    4 am   BACKBONE|DICT|INTERRES
     7    4    5 1    
     8    4   70 1    
     9    5    6 1    
    10    5   65 1    
    11    5   71 1    
    12    6    7 1    
    13    6   72 1    
    14    6   73 1    
    15    7    8 1    
    16    8    9 1    
    17    8   74 1    
    18    8   75 1    
    19    9   10 ar   
    20    9   14 ar   
    21   10   11 ar   
    22   10   76 1    
    23   11   12 ar   
    24   11   48 1    
    25   12   13 ar   
    26   12   77 1    
    27   13   14 ar   
    28   13   15 1    
    29   14   78 1    
    30   15   16 1    
    31   15   79 1    
    32   15   80 1    
    33   16   17 1    
    34   17   18 1    
    35   17   81 1    
    36   17   82 1    
    37   18   19 1    
    38   18   22 1    
    39   18   83 1    
    40   19   20 am   BACKBONE|DICT|INTERRES
    41   19   21 2    
    42   20   84 1    
    43   20   85 1    
    44   22   23 am   BACKBONE|DICT|INTERRES
    45   22   86 1    
    46   23   24 2    
    47   23   25 1    
    48   25   26 1    
    49   25   27 1    
    50   25   87 1    
    51   26   88 1    
    52   26   89 1    
    53   26   90 1    
    54   27   28 am   BACKBONE|DICT|INTERRES
    55   27   91 1    
    56   28   29 2    
    57   28   30 1    
    58   30   31 1    
    59   30   32 1    
    60   30   92 1    
    61   31   93 1    
    62   31   94 1    
    63   31   95 1    
    64   32   33 am   BACKBONE|DICT|INTERRES
    65   32   96 1    
    66   33   34 2    
    67   33   35 1    
    68   35   36 1    
    69   35   37 1    
    70   35   97 1    
    71   36   98 1    
    72   36   99 1    
    73   36  100 1    
    74   37   38 am   BACKBONE|DICT|INTERRES
    75   37  101 1    
    76   38   39 2    
    77   38   40 1    
    78   40   41 1    
    79   40   42 1    
    80   40  102 1    
    81   41  103 1    
    82   41  104 1    
    83   41  105 1    
    84   42   43 am   BACKBONE|DICT|INTERRES
    85   42  106 1    
    86   43   44 2    
    87   43   45 1    
    88   45   46 1    
    89   45   49 1    
    90   45  107 1    
    91   46   47 1    
    92   46  108 1    
    93   46  109 1    
    94   47   48 1    
    95   48  110 1    
    96   48  111 1    
    97   49   50 am   BACKBONE|DICT|INTERRES
    98   49  112 1    
    99   50   51 2    
   100   50   52 1    
   101   52   53 1    
   102   52   54 1    
   103   52  113 1    
   104   53  114 1    
   105   53  115 1    
   106   53  116 1    
   107   54   55 am   BACKBONE|DICT|INTERRES
   108   54  117 1    
   109   55   56 2    
   110   55   57 1    
   111   57   58 1    
   112   57   59 1    
   113   57  118 1    
   114   58  119 1    
   115   58  120 1    
   116   58  121 1    
   117   59   60 am   BACKBONE|DICT|INTERRES
   118   59  122 1    
   119   60   61 2    
   120   60   62 1    
   121   62   63 1    
   122   62   64 1    
   123   62  123 1    
   124   63  124 1    
   125   63  125 1    
   126   63  126 1    
   127   64   65 am   BACKBONE|DICT|INTERRES
   128   64  127 1    
   129   65   66 2    
@<TRIPOS>SUBSTRUCTURE
     1 UNK         1 GROUP             0       ****    0 ROOT    
