@<TRIPOS>MOLECULE
3R134
127   129    1
SMALL
USER_CHARGES


@<TRIPOS>ATOM
      1 CA         37.8527  -46.8866  -55.5540 C.3       0 UNK        -0.1968 
      2 C          37.1474  -46.2417  -54.3700 C.2       0 UNK         0.4852 
      3 O          37.7576  -46.0840  -53.3121 O.2       0 UNK        -0.5359 
      4 N          35.8658  -45.8838  -54.5426 N.am      1 UNK        -0.4300 
      5 CA         34.9960  -45.2092  -53.5633 C.3       1 UNK         0.0863 
      6 C6         35.4830  -43.7778  -53.1911 C.3       11 UNK        -0.0953 
      7 S7         35.3406  -42.6268  -54.5996 S.3       11 UNK        -0.2369 
      8 C8         33.8118  -41.7246  -54.1799 C.3       11 UNK         0.0226 
      9 C9         32.5797  -42.6127  -54.2902 C.ar      11 UNK        -0.0699 
     10 C10        32.1142  -43.3171  -53.1748 C.ar      11 UNK        -0.0804 
     11 C11        31.0133  -44.1718  -53.2767 C.ar      11 UNK        -0.0871 
     12 C12        30.3517  -44.2829  -54.5051 C.ar      11 UNK        -0.1008 
     13 C13        30.7857  -43.5615  -55.6198 C.ar      11 UNK        -0.0735 
     14 C14        31.9081  -42.7358  -55.5101 C.ar      11 UNK        -0.0945 
     15 C15        30.0354  -43.6701  -56.9376 C.3       11 UNK         0.0169 
     16 S16        28.7617  -42.3770  -57.0521 S.3       11 UNK        -0.2669 
     17 C17        28.0111  -42.7372  -58.6765 C.3       11 UNK        -0.0850 
     18 CA         26.5451  -43.2332  -58.5583 C.3       10 UNK         0.0855 
     19 C          25.8617  -43.2960  -59.9579 C.2       10 UNK         0.5543 
     20 N          25.3864  -44.4426  -60.4308 N.am      10 UNK        -0.7343 
     21 O          25.7558  -42.2730  -60.6298 O.2       10 UNK        -0.5027 
     22 N          26.4588  -44.4778  -57.7798 N.am      10 UNK        -0.4495 
     23 C          25.3549  -44.9431  -57.1818 C.2       10 UNK         0.4903 
     24 O          24.2926  -44.3218  -57.1236 O.2       10 UNK        -0.4860 
     25 CA         25.4659  -46.3506  -56.5589 C.3       9 UNK         0.0227 
     26 CB         24.0958  -47.0320  -56.3631 C.3       9 UNK        -0.1964 
     27 N          26.3835  -47.2362  -57.2904 N.am      9 UNK        -0.4231 
     28 C          26.3082  -47.5962  -58.5818 C.2       9 UNK         0.5014 
     29 O          25.4211  -47.2231  -59.3502 O.2       9 UNK        -0.5270 
     30 CA         27.4297  -48.4924  -59.1201 C.3       8 UNK         0.0284 
     31 CB         28.6564  -47.6442  -59.5010 C.3       8 UNK        -0.1977 
     32 N          27.8206  -49.5113  -58.1418 N.am      8 UNK        -0.4342 
     33 C          27.6324  -50.8273  -58.3018 C.2       8 UNK         0.5039 
     34 O          27.1072  -51.3325  -59.2953 O.2       8 UNK        -0.5547 
     35 CA         28.1260  -51.7500  -57.1761 C.3       7 UNK         0.0281 
     36 CB         29.6260  -52.0467  -57.3372 C.3       7 UNK        -0.1963 
     37 N          27.8744  -51.2360  -55.8287 N.am      7 UNK        -0.4444 
     38 C          26.6667  -51.1707  -55.2502 C.2       7 UNK         0.5104 
     39 O          25.6133  -51.4455  -55.8249 O.2       7 UNK        -0.5100 
     40 CA         26.6297  -50.7501  -53.7730 C.3       6 UNK         0.0396 
     41 CB         27.0518  -51.9203  -52.8691 C.3       6 UNK        -0.1801 
     42 N          27.5103  -49.6076  -53.5307 N.am      6 UNK        -0.4747 
     43 C          27.0924  -48.3396  -53.4127 C.2       6 UNK         0.5012 
     44 O          25.9052  -48.0143  -53.3973 O.2       6 UNK        -0.5003 
     45 CA         28.1646  -47.2309  -53.3172 C.3       5 UNK         0.0782 
     46 C46        28.3271  -46.7205  -51.8614 C.3       11 UNK        -0.0868 
     47 S47        28.7771  -44.9536  -51.7926 S.3       11 UNK        -0.2515 
     48 C48        30.5799  -44.9919  -52.0639 C.3       11 UNK         0.0199 
     49 N          29.4552  -47.6303  -53.8944 N.am      5 UNK        -0.4607 
     50 C          29.6698  -47.8719  -55.1940 C.2       4 UNK         0.5031 
     51 O          28.8006  -47.7618  -56.0568 O.2       4 UNK        -0.5119 
     52 CA         31.0657  -48.3726  -55.6023 C.3       4 UNK         0.0263 
     53 CB         31.9678  -47.1838  -55.9689 C.3       4 UNK        -0.1967 
     54 N          31.7370  -49.1953  -54.5901 N.am      4 UNK        -0.4237 
     55 C          31.2361  -50.2849  -53.9880 C.2       3 UNK         0.4908 
     56 O          30.1211  -50.7441  -54.2356 O.2       3 UNK        -0.5102 
     57 CA         32.0975  -50.9726  -52.9129 C.3       3 UNK         0.0241 
     58 CB         32.5986  -52.3324  -53.4256 C.3       3 UNK        -0.1971 
     59 N          33.2429  -50.1849  -52.4403 N.am      3 UNK        -0.4139 
     60 C          33.1730  -49.0223  -51.7751 C.2       2 UNK         0.5016 
     61 O          32.1151  -48.4468  -51.5159 O.2       2 UNK        -0.5319 
     62 CA         34.5066  -48.3686  -51.3822 C.3       2 UNK         0.0286 
     63 CB         35.6660  -49.3725  -51.2141 C.3       2 UNK        -0.1963 
     64 N          34.8681  -47.3886  -52.4055 N.am      2 UNK        -0.4790 
     65 C          34.6458  -46.0696  -52.3231 C.2       1 UNK         0.5024 
     66 O          34.1482  -45.5334  -51.3316 O.2       1 UNK        -0.4888 
     67 H67        38.7154  -46.2883  -55.8462 H         1 UNK         0.0892 
     68 H68        38.2043  -47.8824  -55.2851 H         1 UNK         0.0892 
     69 H69        37.1975  -46.9806  -56.4199 H         1 UNK         0.0892 
     70 H70        35.4399  -46.0400  -55.4457 H         1 UNK         0.3107 
     71 H71        34.0401  -45.1034  -54.0764 H         1 UNK         0.0773 
     72 H72        34.9255  -43.3585  -52.3536 H         1 UNK         0.0680 
     73 H73        36.5216  -43.7937  -52.8597 H         1 UNK         0.0680 
     74 H74        33.7126  -40.8726  -54.8540 H         1 UNK         0.0650 
     75 H75        33.8948  -41.3069  -53.1754 H         1 UNK         0.0650 
     76 H76        32.6296  -43.2230  -52.2290 H         1 UNK         0.1397 
     77 H77        29.4890  -44.9247  -54.5975 H         1 UNK         0.1363 
     78 H78        32.2555  -42.1844  -56.3732 H         1 UNK         0.1355 
     79 H79        30.7304  -43.5757  -57.7735 H         1 UNK         0.0707 
     80 H80        29.5699  -44.6532  -57.0268 H         1 UNK         0.0707 
     81 H81        28.0548  -41.8145  -59.2587 H         1 UNK         0.1034 
     82 H82        28.6191  -43.4614  -59.2218 H         1 UNK         0.1034 
     83 H83        25.9927  -42.4716  -58.0041 H         1 UNK         0.0482 
     84 H84        25.4402  -45.3023  -59.8953 H         1 UNK         0.3460 
     85 H85        24.9464  -44.4506  -61.3370 H         1 UNK         0.3460 
     86 H86        27.2826  -45.0580  -57.7775 H         1 UNK         0.2989 
     87 H87        25.9050  -46.2055  -55.5718 H         1 UNK         0.0559 
     88 H88        23.5699  -47.1641  -57.3091 H         1 UNK         0.0848 
     89 H89        23.4525  -46.4393  -55.7117 H         1 UNK         0.0848 
     90 H90        24.2064  -48.0124  -55.8991 H         1 UNK         0.0848 
     91 H91        27.2119  -47.5241  -56.7709 H         1 UNK         0.3144 
     92 H92        27.0553  -48.9609  -60.0327 H         1 UNK         0.0727 
     93 H93        29.0889  -47.1338  -58.6401 H         1 UNK         0.0790 
     94 H94        28.3899  -46.8803  -60.2331 H         1 UNK         0.0790 
     95 H95        29.4364  -48.2608  -59.9477 H         1 UNK         0.0790 
     96 H96        28.2415  -49.1742  -57.2824 H         1 UNK         0.3215 
     97 H97        27.5879  -52.6958  -57.2731 H         1 UNK         0.0863 
     98 H98        29.9700  -52.7662  -56.5938 H         1 UNK         0.0808 
     99 H99        30.2315  -51.1465  -57.2342 H         1 UNK         0.0808 
    100 H100       29.8366  -52.4707  -58.3200 H         1 UNK         0.0808 
    101 H101       28.6951  -51.0292  -55.2612 H         1 UNK         0.3118 
    102 H102       25.5971  -50.4963  -53.5243 H         1 UNK         0.0546 
    103 H103       26.4110  -52.7882  -53.0304 H         1 UNK         0.0828 
    104 H104       26.9738  -51.6523  -51.8154 H         1 UNK         0.0828 
    105 H105       28.0792  -52.2340  -53.0582 H         1 UNK         0.0828 
    106 H106       28.5069  -49.7937  -53.5691 H         1 UNK         0.3005 
    107 H107       27.7721  -46.4137  -53.9259 H         1 UNK         0.1257 
    108 H108       29.0522  -47.3176  -51.3049 H         1 UNK         0.0775 
    109 H109       27.3901  -46.8070  -51.3068 H         1 UNK         0.0775 
    110 H110       31.0629  -44.6199  -51.1590 H         1 UNK         0.0840 
    111 H111       30.9337  -46.0149  -52.1882 H         1 UNK         0.0840 
    112 H112       30.2157  -47.7770  -53.2450 H         1 UNK         0.2987 
    113 H113       30.9386  -48.9903  -56.4926 H         1 UNK         0.0785 
    114 H114       32.1733  -46.5508  -55.1049 H         1 UNK         0.0798 
    115 H115       31.4988  -46.5557  -56.7279 H         1 UNK         0.0798 
    116 H116       32.9218  -47.5189  -56.3761 H         1 UNK         0.0798 
    117 H117       32.6618  -48.9021  -54.3154 H         1 UNK         0.3079 
    118 H118       31.4449  -51.1506  -52.0556 H         1 UNK         0.0794 
    119 H119       33.2745  -52.2204  -54.2745 H         1 UNK         0.0786 
    120 H120       31.7670  -52.9588  -53.7527 H         1 UNK         0.0786 
    121 H121       33.1254  -52.8822  -52.6453 H         1 UNK         0.0786 
    122 H122       34.1572  -50.5776  -52.6126 H         1 UNK         0.3032 
    123 H123       34.3489  -47.8782  -50.4185 H         1 UNK         0.1094 
    124 H124       36.5510  -48.8744  -50.8171 H         1 UNK         0.0794 
    125 H125       35.4041  -50.1632  -50.5092 H         1 UNK         0.0794 
    126 H126       35.9551  -49.8430  -52.1543 H         1 UNK         0.0794 
    127 H127       35.2809  -47.7445  -53.2552 H         1 UNK         0.3016 
@<TRIPOS>BOND
     1    1    2 1    
     2    1   67 1    
     3    1   68 1    
     4    1   69 1    
     5    2    3 2    
     6    2    4 am   BACKBONE|DICT|INTERRES
     7    4    5 1    
     8    4   70 1    
     9    5    6 1    
    10    5   65 1    
    11    5   71 1    
    12    6    7 1    
    13    6   72 1    
    14    6   73 1    
    15    7    8 1    
    16    8    9 1    
    17    8   74 1    
    18    8   75 1    
    19    9   10 ar   
    20    9   14 ar   
    21   10   11 ar   
    22   10   76 1    
    23   11   12 ar   
    24   11   48 1    
    25   12   13 ar   
    26   12   77 1    
    27   13   14 ar   
    28   13   15 1    
    29   14   78 1    
    30   15   16 1    
    31   15   79 1    
    32   15   80 1    
    33   16   17 1    
    34   17   18 1    
    35   17   81 1    
    36   17   82 1    
    37   18   19 1    
    38   18   22 1    
    39   18   83 1    
    40   19   20 am   BACKBONE|DICT|INTERRES
    41   19   21 2    
    42   20   84 1    
    43   20   85 1    
    44   22   23 am   BACKBONE|DICT|INTERRES
    45   22   86 1    
    46   23   24 2    
    47   23   25 1    
    48   25   26 1    
    49   25   27 1    
    50   25   87 1    
    51   26   88 1    
    52   26   89 1    
    53   26   90 1    
    54   27   28 am   BACKBONE|DICT|INTERRES
    55   27   91 1    
    56   28   29 2    
    57   28   30 1    
    58   30   31 1    
    59   30   32 1    
    60   30   92 1    
    61   31   93 1    
    62   31   94 1    
    63   31   95 1    
    64   32   33 am   BACKBONE|DICT|INTERRES
    65   32   96 1    
    66   33   34 2    
    67   33   35 1    
    68   35   36 1    
    69   35   37 1    
    70   35   97 1    
    71   36   98 1    
    72   36   99 1    
    73   36  100 1    
    74   37   38 am   BACKBONE|DICT|INTERRES
    75   37  101 1    
    76   38   39 2    
    77   38   40 1    
    78   40   41 1    
    79   40   42 1    
    80   40  102 1    
    81   41  103 1    
    82   41  104 1    
    83   41  105 1    
    84   42   43 am   BACKBONE|DICT|INTERRES
    85   42  106 1    
    86   43   44 2    
    87   43   45 1    
    88   45   46 1    
    89   45   49 1    
    90   45  107 1    
    91   46   47 1    
    92   46  108 1    
    93   46  109 1    
    94   47   48 1    
    95   48  110 1    
    96   48  111 1    
    97   49   50 am   BACKBONE|DICT|INTERRES
    98   49  112 1    
    99   50   51 2    
   100   50   52 1    
   101   52   53 1    
   102   52   54 1    
   103   52  113 1    
   104   53  114 1    
   105   53  115 1    
   106   53  116 1    
   107   54   55 am   BACKBONE|DICT|INTERRES
   108   54  117 1    
   109   55   56 2    
   110   55   57 1    
   111   57   58 1    
   112   57   59 1    
   113   57  118 1    
   114   58  119 1    
   115   58  120 1    
   116   58  121 1    
   117   59   60 am   BACKBONE|DICT|INTERRES
   118   59  122 1    
   119   60   61 2    
   120   60   62 1    
   121   62   63 1    
   122   62   64 1    
   123   62  123 1    
   124   63  124 1    
   125   63  125 1    
   126   63  126 1    
   127   64   65 am   BACKBONE|DICT|INTERRES
   128   64  127 1    
   129   65   66 2    
@<TRIPOS>SUBSTRUCTURE
     1 UNK         1 GROUP             0       ****    0 ROOT    
