@<TRIPOS>MOLECULE
3R134
127   129    1
SMALL
USER_CHARGES


@<TRIPOS>ATOM
      1 CA         38.2508  -44.6556  -52.6948 C.3       0 UNK        -0.1968 
      2 C          36.7982  -45.0154  -52.9686 C.2       0 UNK         0.4852 
      3 O          36.5040  -45.6389  -53.9899 O.2       0 UNK        -0.5359 
      4 N          35.8877  -44.6369  -52.0620 N.am      1 UNK        -0.4300 
      5 CA         34.4412  -44.8775  -52.1475 C.3       1 UNK         0.0863 
      6 C6         33.6297  -43.8008  -51.3748 C.3       11 UNK        -0.0953 
      7 S7         34.0557  -42.0942  -51.8800 S.3       11 UNK        -0.2369 
      8 C8         32.4374  -41.3872  -52.3544 C.3       11 UNK         0.0226 
      9 C9         31.8245  -41.8918  -53.6639 C.ar      11 UNK        -0.0699 
     10 C10        32.4999  -42.7470  -54.5466 C.ar      11 UNK        -0.0804 
     11 C11        31.8722  -43.2236  -55.6999 C.ar      11 UNK        -0.0871 
     12 C12        30.5888  -42.7784  -56.0158 C.ar      11 UNK        -0.1008 
     13 C13        29.9070  -41.9115  -55.1621 C.ar      11 UNK        -0.0735 
     14 C14        30.5257  -41.4782  -53.9857 C.ar      11 UNK        -0.0945 
     15 C15        28.5015  -41.4614  -55.5232 C.3       11 UNK         0.0169 
     16 S16        27.2944  -42.8022  -55.2605 S.3       11 UNK        -0.2669 
     17 C17        26.2102  -42.6084  -56.7217 C.3       11 UNK        -0.0850 
     18 CA         26.3657  -43.7283  -57.7913 C.3       10 UNK         0.0855 
     19 C          27.7666  -43.7863  -58.4562 C.2       10 UNK         0.5543 
     20 N          28.1685  -42.7262  -59.1443 N.am      10 UNK        -0.7343 
     21 O          28.4934  -44.7737  -58.3597 O.2       10 UNK        -0.5027 
     22 N          25.9525  -45.0434  -57.2925 N.am      10 UNK        -0.4495 
     23 C          24.6879  -45.4687  -57.2107 C.2       10 UNK         0.4903 
     24 O          23.7110  -44.7661  -57.4786 O.2       10 UNK        -0.4860 
     25 CA         24.4893  -46.9289  -56.7664 C.3       9 UNK         0.0227 
     26 CB         23.0436  -47.4354  -56.9535 C.3       9 UNK        -0.1964 
     27 N          25.4499  -47.8383  -57.3978 N.am      9 UNK        -0.4231 
     28 C          25.6103  -48.1054  -58.7028 C.2       9 UNK         0.5014 
     29 O          24.9137  -47.6285  -59.5999 O.2       9 UNK        -0.5270 
     30 CA         26.7542  -49.0681  -59.0779 C.3       8 UNK         0.0284 
     31 CB         27.9832  -48.2730  -59.5478 C.3       8 UNK        -0.1977 
     32 N          27.1460  -49.9613  -57.9819 N.am      8 UNK        -0.4342 
     33 C          26.3863  -50.9592  -57.5060 C.2       8 UNK         0.5039 
     34 O          25.3182  -51.3078  -58.0105 O.2       8 UNK        -0.5547 
     35 CA         26.8792  -51.6608  -56.2288 C.3       7 UNK         0.0281 
     36 CB         27.9324  -52.7288  -56.5634 C.3       7 UNK        -0.1963 
     37 N          27.4188  -50.7217  -55.2408 N.am      7 UNK        -0.4444 
     38 C          26.7050  -49.7786  -54.6081 C.2       7 UNK         0.5104 
     39 O          25.4908  -49.6326  -54.7410 O.2       7 UNK        -0.5100 
     40 CA         27.4807  -48.8003  -53.7105 C.3       6 UNK         0.0396 
     41 CB         27.7122  -49.3966  -52.3133 C.3       6 UNK        -0.1801 
     42 N          28.7588  -48.3999  -54.3022 N.am      6 UNK        -0.4747 
     43 C          28.8852  -47.6208  -55.3880 C.2       6 UNK         0.5012 
     44 O          27.9320  -47.1112  -55.9777 O.2       6 UNK        -0.5003 
     45 CA         30.3164  -47.4100  -55.9198 C.3       5 UNK         0.0782 
     46 C46        30.9883  -46.2301  -55.1797 C.3       11 UNK        -0.0868 
     47 S47        32.6952  -45.8819  -55.7430 S.3       11 UNK        -0.2515 
     48 C48        32.5479  -44.2654  -56.5805 C.3       11 UNK         0.0199 
     49 N          31.0974  -48.6474  -55.8262 N.am      5 UNK        -0.4607 
     50 C          30.8784  -49.7394  -56.5721 C.2       4 UNK         0.5031 
     51 O          30.0056  -49.8077  -57.4367 O.2       4 UNK        -0.5119 
     52 CA         31.7408  -50.9806  -56.2757 C.3       4 UNK         0.0263 
     53 CB         33.0537  -50.9230  -57.0720 C.3       4 UNK        -0.1967 
     54 N          32.0411  -51.1477  -54.8514 N.am      4 UNK        -0.4237 
     55 C          31.1204  -51.3112  -53.8902 C.2       3 UNK         0.4908 
     56 O          29.9200  -51.4484  -54.1198 O.2       3 UNK        -0.5102 
     57 CA         31.5968  -51.2632  -52.4256 C.3       3 UNK         0.0241 
     58 CB         31.7270  -52.6865  -51.8608 C.3       3 UNK        -0.1971 
     59 N          32.8540  -50.5351  -52.2053 N.am      3 UNK        -0.4139 
     60 C          33.0859  -49.2570  -52.5397 C.2       2 UNK         0.5016 
     61 O          32.2592  -48.5429  -53.1115 O.2       2 UNK        -0.5319 
     62 CA         34.5010  -48.7308  -52.2415 C.3       2 UNK         0.0286 
     63 CB         35.5416  -49.4418  -53.1258 C.3       2 UNK        -0.1963 
     64 N          34.6316  -47.2906  -52.4625 N.am      2 UNK        -0.4790 
     65 C          34.1151  -46.3196  -51.7001 C.2       1 UNK         0.5024 
     66 O          33.4697  -46.5279  -50.6707 O.2       1 UNK        -0.4888 
     67 H67        38.6430  -44.0407  -53.5043 H         1 UNK         0.0892 
     68 H68        38.3656  -44.1023  -51.7628 H         1 UNK         0.0892 
     69 H69        38.8550  -45.5600  -52.6295 H         1 UNK         0.0892 
     70 H70        36.1908  -44.1409  -51.2360 H         1 UNK         0.3107 
     71 H71        34.1461  -44.8213  -53.1954 H         1 UNK         0.0773 
     72 H72        33.8076  -43.8807  -50.3008 H         1 UNK         0.0680 
     73 H73        32.5602  -43.9633  -51.5204 H         1 UNK         0.0680 
     74 H74        32.5585  -40.3060  -52.4325 H         1 UNK         0.0650 
     75 H75        31.7346  -41.5585  -51.5375 H         1 UNK         0.0650 
     76 H76        33.5058  -43.0744  -54.3379 H         1 UNK         0.1397 
     77 H77        30.1011  -43.1383  -56.9101 H         1 UNK         0.1363 
     78 H78        29.9936  -40.8159  -53.3161 H         1 UNK         0.1355 
     79 H79        28.5013  -41.1410  -56.5658 H         1 UNK         0.0707 
     80 H80        28.2052  -40.5920  -54.9344 H         1 UNK         0.0707 
     81 H81        25.1793  -42.5917  -56.3653 H         1 UNK         0.1034 
     82 H82        26.3595  -41.6276  -57.1749 H         1 UNK         0.1034 
     83 H83        25.6891  -43.4849  -58.6132 H         1 UNK         0.0482 
     84 H84        29.0716  -42.7500  -59.5907 H         1 UNK         0.3460 
     85 H85        27.5796  -41.9160  -59.2538 H         1 UNK         0.3460 
     86 H86        26.7145  -45.6756  -57.0648 H         1 UNK         0.2989 
     87 H87        24.7107  -46.9534  -55.6984 H         1 UNK         0.0559 
     88 H88        22.3404  -46.8301  -56.3803 H         1 UNK         0.0848 
     89 H89        22.9392  -48.4648  -56.6101 H         1 UNK         0.0848 
     90 H90        22.7309  -47.3957  -57.9973 H         1 UNK         0.0848 
     91 H91        26.1259  -48.2439  -56.7635 H         1 UNK         0.3144 
     92 H92        26.4064  -49.6845  -59.9095 H         1 UNK         0.0727 
     93 H93        28.3834  -47.6433  -58.7521 H         1 UNK         0.0790 
     94 H94        27.7306  -47.6183  -60.3830 H         1 UNK         0.0790 
     95 H95        28.7810  -48.9355  -59.8839 H         1 UNK         0.0790 
     96 H96        28.0625  -49.8028  -57.5697 H         1 UNK         0.3215 
     97 H97        26.0215  -52.1607  -55.7735 H         1 UNK         0.0863 
     98 H98        28.2557  -53.2620  -55.6691 H         1 UNK         0.0808 
     99 H99        28.8154  -52.2934  -57.0308 H         1 UNK         0.0808 
    100 H100       27.5293  -53.4692  -57.2555 H         1 UNK         0.0808 
    101 H101       28.4012  -50.8276  -54.9954 H         1 UNK         0.3118 
    102 H102       26.8714  -47.9013  -53.5942 H         1 UNK         0.0546 
    103 H103       28.2979  -50.3149  -52.3515 H         1 UNK         0.0828 
    104 H104       26.7626  -49.6397  -51.8349 H         1 UNK         0.0828 
    105 H105       28.2313  -48.6935  -51.6619 H         1 UNK         0.0828 
    106 H106       29.5979  -48.7895  -53.8947 H         1 UNK         0.3005 
    107 H107       30.2312  -47.1428  -56.9760 H         1 UNK         0.1257 
    108 H108       30.3671  -45.3417  -55.2834 H         1 UNK         0.0775 
    109 H109       31.0353  -46.4258  -54.1070 H         1 UNK         0.0775 
    110 H110       33.5431  -43.9159  -56.8585 H         1 UNK         0.0840 
    111 H111       31.9980  -44.4020  -57.5132 H         1 UNK         0.0840 
    112 H112       31.7885  -48.6730  -55.0835 H         1 UNK         0.2987 
    113 H113       31.1807  -51.8591  -56.6014 H         1 UNK         0.0785 
    114 H114       32.8565  -50.8206  -58.1402 H         1 UNK         0.0798 
    115 H115       33.6401  -51.8323  -56.9386 H         1 UNK         0.0798 
    116 H116       33.6721  -50.0756  -56.7723 H         1 UNK         0.0798 
    117 H117       33.0061  -51.0500  -54.5742 H         1 UNK         0.3079 
    118 H118       30.8225  -50.7419  -51.8594 H         1 UNK         0.0794 
    119 H119       31.9506  -52.6726  -50.7938 H         1 UNK         0.0786 
    120 H120       32.5140  -53.2504  -52.3633 H         1 UNK         0.0786 
    121 H121       30.7968  -53.2431  -51.9861 H         1 UNK         0.0786 
    122 H122       33.5923  -51.0537  -51.7510 H         1 UNK         0.3032 
    123 H123       34.7223  -48.9358  -51.1915 H         1 UNK         0.1094 
    124 H124       35.3447  -49.2809  -54.1869 H         1 UNK         0.0794 
    125 H125       36.5493  -49.0809  -52.9173 H         1 UNK         0.0794 
    126 H126       35.5494  -50.5186  -52.9535 H         1 UNK         0.0794 
    127 H127       35.1688  -46.9984  -53.2729 H         1 UNK         0.3016 
@<TRIPOS>BOND
     1    1    2 1    
     2    1   67 1    
     3    1   68 1    
     4    1   69 1    
     5    2    3 2    
     6    2    4 am   BACKBONE|DICT|INTERRES
     7    4    5 1    
     8    4   70 1    
     9    5    6 1    
    10    5   65 1    
    11    5   71 1    
    12    6    7 1    
    13    6   72 1    
    14    6   73 1    
    15    7    8 1    
    16    8    9 1    
    17    8   74 1    
    18    8   75 1    
    19    9   10 ar   
    20    9   14 ar   
    21   10   11 ar   
    22   10   76 1    
    23   11   12 ar   
    24   11   48 1    
    25   12   13 ar   
    26   12   77 1    
    27   13   14 ar   
    28   13   15 1    
    29   14   78 1    
    30   15   16 1    
    31   15   79 1    
    32   15   80 1    
    33   16   17 1    
    34   17   18 1    
    35   17   81 1    
    36   17   82 1    
    37   18   19 1    
    38   18   22 1    
    39   18   83 1    
    40   19   20 am   BACKBONE|DICT|INTERRES
    41   19   21 2    
    42   20   84 1    
    43   20   85 1    
    44   22   23 am   BACKBONE|DICT|INTERRES
    45   22   86 1    
    46   23   24 2    
    47   23   25 1    
    48   25   26 1    
    49   25   27 1    
    50   25   87 1    
    51   26   88 1    
    52   26   89 1    
    53   26   90 1    
    54   27   28 am   BACKBONE|DICT|INTERRES
    55   27   91 1    
    56   28   29 2    
    57   28   30 1    
    58   30   31 1    
    59   30   32 1    
    60   30   92 1    
    61   31   93 1    
    62   31   94 1    
    63   31   95 1    
    64   32   33 am   BACKBONE|DICT|INTERRES
    65   32   96 1    
    66   33   34 2    
    67   33   35 1    
    68   35   36 1    
    69   35   37 1    
    70   35   97 1    
    71   36   98 1    
    72   36   99 1    
    73   36  100 1    
    74   37   38 am   BACKBONE|DICT|INTERRES
    75   37  101 1    
    76   38   39 2    
    77   38   40 1    
    78   40   41 1    
    79   40   42 1    
    80   40  102 1    
    81   41  103 1    
    82   41  104 1    
    83   41  105 1    
    84   42   43 am   BACKBONE|DICT|INTERRES
    85   42  106 1    
    86   43   44 2    
    87   43   45 1    
    88   45   46 1    
    89   45   49 1    
    90   45  107 1    
    91   46   47 1    
    92   46  108 1    
    93   46  109 1    
    94   47   48 1    
    95   48  110 1    
    96   48  111 1    
    97   49   50 am   BACKBONE|DICT|INTERRES
    98   49  112 1    
    99   50   51 2    
   100   50   52 1    
   101   52   53 1    
   102   52   54 1    
   103   52  113 1    
   104   53  114 1    
   105   53  115 1    
   106   53  116 1    
   107   54   55 am   BACKBONE|DICT|INTERRES
   108   54  117 1    
   109   55   56 2    
   110   55   57 1    
   111   57   58 1    
   112   57   59 1    
   113   57  118 1    
   114   58  119 1    
   115   58  120 1    
   116   58  121 1    
   117   59   60 am   BACKBONE|DICT|INTERRES
   118   59  122 1    
   119   60   61 2    
   120   60   62 1    
   121   62   63 1    
   122   62   64 1    
   123   62  123 1    
   124   63  124 1    
   125   63  125 1    
   126   63  126 1    
   127   64   65 am   BACKBONE|DICT|INTERRES
   128   64  127 1    
   129   65   66 2    
@<TRIPOS>SUBSTRUCTURE
     1 UNK         1 GROUP             0       ****    0 ROOT    
