@<TRIPOS>MOLECULE
3R134
127   129    1
SMALL
USER_CHARGES


@<TRIPOS>ATOM
      1 CA         38.1144  -46.3802  -48.1683 C.3       0 UNK        -0.1968 
      2 C          37.1447  -46.7961  -49.2642 C.2       0 UNK         0.4852 
      3 O          37.0411  -47.9851  -49.5729 O.2       0 UNK        -0.5359 
      4 N          36.4202  -45.8321  -49.8489 N.am      1 UNK        -0.4300 
      5 CA         35.4373  -46.0272  -50.9220 C.3       1 UNK         0.0863 
      6 C6         35.2806  -44.7348  -51.7650 C.3       11 UNK        -0.0953 
      7 S7         34.5181  -45.0209  -53.4008 S.3       11 UNK        -0.2369 
      8 C8         33.1527  -43.8121  -53.3288 C.3       11 UNK         0.0226 
      9 C9         32.3358  -43.6748  -54.6129 C.ar      11 UNK        -0.0699 
     10 C10        32.8984  -43.8658  -55.8819 C.ar      11 UNK        -0.0804 
     11 C11        32.1333  -43.6721  -57.0361 C.ar      11 UNK        -0.0871 
     12 C12        30.8027  -43.2650  -56.9193 C.ar      11 UNK        -0.1008 
     13 C13        30.2205  -43.0863  -55.6626 C.ar      11 UNK        -0.0735 
     14 C14        30.9944  -43.2897  -54.5164 C.ar      11 UNK        -0.0945 
     15 C15        28.7665  -42.6485  -55.5393 C.3       11 UNK         0.0169 
     16 S16        27.6104  -43.9976  -55.9435 S.3       11 UNK        -0.2669 
     17 C17        27.5481  -43.9045  -57.7685 C.3       11 UNK        -0.0850 
     18 CA         26.1309  -44.1629  -58.3407 C.3       10 UNK         0.0855 
     19 C          26.0866  -43.9088  -59.8771 C.2       10 UNK         0.5543 
     20 N          25.6526  -44.8545  -60.7012 N.am      10 UNK        -0.7343 
     21 O          26.4461  -42.8248  -60.3297 O.2       10 UNK        -0.5027 
     22 N          25.6152  -45.4757  -57.9212 N.am      10 UNK        -0.4495 
     23 C          24.3165  -45.7861  -57.8060 C.2       10 UNK         0.4903 
     24 O          23.4014  -45.0092  -58.0803 O.2       10 UNK        -0.4860 
     25 CA         23.9647  -47.1963  -57.2988 C.3       9 UNK         0.0227 
     26 CB         23.5092  -48.0880  -58.4639 C.3       9 UNK        -0.1964 
     27 N          25.0735  -47.8316  -56.5770 N.am      9 UNK        -0.4231 
     28 C          25.4183  -47.5115  -55.3194 C.2       9 UNK         0.5014 
     29 O          24.7677  -46.7272  -54.6258 O.2       9 UNK        -0.5270 
     30 CA         26.7116  -48.1154  -54.7357 C.3       8 UNK         0.0284 
     31 CB         26.5769  -48.4639  -53.2377 C.3       8 UNK        -0.1977 
     32 N          27.2706  -49.2414  -55.4895 N.am      8 UNK        -0.4342 
     33 C          26.7399  -50.4569  -55.6782 C.2       8 UNK         0.5039 
     34 O          25.6673  -50.8279  -55.1982 O.2       8 UNK        -0.5547 
     35 CA         27.5457  -51.3896  -56.6058 C.3       7 UNK         0.0281 
     36 CB         26.8033  -52.7021  -56.9366 C.3       7 UNK        -0.1963 
     37 N          27.9743  -50.7082  -57.8371 N.am      7 UNK        -0.4444 
     38 C          27.1832  -50.0993  -58.7357 C.2       7 UNK         0.5104 
     39 O          25.9555  -50.0840  -58.6644 O.2       7 UNK        -0.5100 
     40 CA         27.8933  -49.3458  -59.8794 C.3       6 UNK         0.0396 
     41 CB         26.9558  -48.3828  -60.6386 C.3       6 UNK        -0.1801 
     42 N          29.1018  -48.6431  -59.4299 N.am      6 UNK        -0.4747 
     43 C          29.1748  -47.6847  -58.4926 C.2       6 UNK         0.5012 
     44 O          28.1952  -47.2096  -57.9099 O.2       6 UNK        -0.5003 
     45 CA         30.6005  -47.2007  -58.1528 C.3       5 UNK         0.0782 
     46 C46        31.0452  -46.0582  -59.0979 C.3       11 UNK        -0.0868 
     47 S47        32.8099  -45.6378  -58.8791 S.3       11 UNK        -0.2515 
     48 C48        32.7496  -43.8782  -58.4118 C.3       11 UNK         0.0199 
     49 N          30.7742  -46.8563  -56.7369 N.am      5 UNK        -0.4607 
     50 C          30.5963  -47.7038  -55.7164 C.2       4 UNK         0.5031 
     51 O          30.1045  -48.8308  -55.8340 O.2       4 UNK        -0.5119 
     52 CA         31.0625  -47.2141  -54.3338 C.3       4 UNK         0.0263 
     53 CB         29.9503  -46.4491  -53.6018 C.3       4 UNK        -0.1967 
     54 N          31.5134  -48.3178  -53.4846 N.am      4 UNK        -0.4237 
     55 C          32.5737  -49.0978  -53.7294 C.2       3 UNK         0.4908 
     56 O          33.3609  -48.9180  -54.6608 O.2       3 UNK        -0.5102 
     57 CA         32.8058  -50.2474  -52.7328 C.3       3 UNK         0.0241 
     58 CB         33.8829  -51.2404  -53.2092 C.3       3 UNK        -0.1971 
     59 N          33.2009  -49.7057  -51.4348 N.am      3 UNK        -0.4139 
     60 C          32.3622  -49.2424  -50.4979 C.2       2 UNK         0.5016 
     61 O          31.1352  -49.3063  -50.5837 O.2       2 UNK        -0.5319 
     62 CA         33.0122  -48.5402  -49.2944 C.3       2 UNK         0.0286 
     63 CB         33.4376  -49.5602  -48.2264 C.3       2 UNK        -0.1963 
     64 N          34.1741  -47.7499  -49.7106 N.am      2 UNK        -0.4790 
     65 C          34.1024  -46.5882  -50.3744 C.2       1 UNK         0.5024 
     66 O          33.0456  -45.9798  -50.5483 O.2       1 UNK        -0.4888 
     67 H67        39.1298  -46.6698  -48.4372 H         1 UNK         0.0892 
     68 H68        38.1025  -45.3037  -47.9992 H         1 UNK         0.0892 
     69 H69        37.8557  -46.8737  -47.2319 H         1 UNK         0.0892 
     70 H70        36.5238  -44.8802  -49.5263 H         1 UNK         0.3107 
     71 H71        35.8370  -46.7937  -51.5901 H         1 UNK         0.0773 
     72 H72        34.7290  -43.9743  -51.2091 H         1 UNK         0.0680 
     73 H73        36.2631  -44.3013  -51.9590 H         1 UNK         0.0680 
     74 H74        32.4974  -44.0936  -52.5029 H         1 UNK         0.0650 
     75 H75        33.5633  -42.8317  -53.0836 H         1 UNK         0.0650 
     76 H76        33.9357  -44.1541  -55.9802 H         1 UNK         0.1397 
     77 H77        30.2197  -43.0868  -57.8106 H         1 UNK         0.1363 
     78 H78        30.5526  -43.1346  -53.5414 H         1 UNK         0.1355 
     79 H79        28.5799  -41.7821  -56.1751 H         1 UNK         0.0707 
     80 H80        28.5595  -42.3193  -54.5200 H         1 UNK         0.0707 
     81 H81        28.2600  -44.6203  -58.1775 H         1 UNK         0.1034 
     82 H82        27.8941  -42.9184  -58.0820 H         1 UNK         0.1034 
     83 H83        25.4752  -43.4045  -57.9084 H         1 UNK         0.0482 
     84 H84        25.3283  -45.7341  -60.3368 H         1 UNK         0.3460 
     85 H85        25.6244  -44.6722  -61.6919 H         1 UNK         0.3460 
     86 H86        26.3187  -46.1699  -57.6956 H         1 UNK         0.2989 
     87 H87        23.1209  -47.0974  -56.6126 H         1 UNK         0.0559 
     88 H88        23.2804  -49.0994  -58.1270 H         1 UNK         0.0848 
     89 H89        24.2665  -48.1572  -59.2439 H         1 UNK         0.0848 
     90 H90        22.6062  -47.6888  -58.9275 H         1 UNK         0.0848 
     91 H91        25.6307  -48.5069  -57.0868 H         1 UNK         0.3144 
     92 H92        27.4513  -47.3200  -54.8266 H         1 UNK         0.0727 
     93 H93        27.4987  -48.8904  -52.8423 H         1 UNK         0.0790 
     94 H94        25.7742  -49.1805  -53.0612 H         1 UNK         0.0790 
     95 H95        26.3529  -47.5747  -52.6472 H         1 UNK         0.0790 
     96 H96        28.1819  -49.0607  -55.9062 H         1 UNK         0.3215 
     97 H97        28.4545  -51.6507  -56.0608 H         1 UNK         0.0863 
     98 H98        27.4070  -53.3507  -57.5712 H         1 UNK         0.0808 
     99 H99        25.8586  -52.5161  -57.4487 H         1 UNK         0.0808 
    100 H100       26.5746  -53.2600  -56.0277 H         1 UNK         0.0808 
    101 H101       28.9735  -50.6304  -57.9684 H         1 UNK         0.3118 
    102 H102       28.2226  -50.1093  -60.5856 H         1 UNK         0.0546 
    103 H103       26.5541  -47.6113  -59.9829 H         1 UNK         0.0828 
    104 H104       26.1090  -48.9180  -61.0699 H         1 UNK         0.0828 
    105 H105       27.4752  -47.8868  -61.4582 H         1 UNK         0.0828 
    106 H106       29.9619  -48.9603  -59.8571 H         1 UNK         0.3005 
    107 H107       31.2691  -48.0472  -58.3264 H         1 UNK         0.1257 
    108 H108       30.9131  -46.3519  -60.1411 H         1 UNK         0.0775 
    109 H109       30.4244  -45.1741  -58.9586 H         1 UNK         0.0775 
    110 H110       33.7648  -43.4785  -58.4179 H         1 UNK         0.0840 
    111 H111       32.2017  -43.3188  -59.1719 H         1 UNK         0.0840 
    112 H112       31.1482  -45.9350  -56.5544 H         1 UNK         0.2987 
    113 H113       31.9094  -46.5415  -54.4823 H         1 UNK         0.0785 
    114 H114       30.3488  -45.9124  -52.7404 H         1 UNK         0.0798 
    115 H115       29.1695  -47.1172  -53.2422 H         1 UNK         0.0798 
    116 H116       29.4786  -45.7131  -54.2530 H         1 UNK         0.0798 
    117 H117       30.9471  -48.5340  -52.6735 H         1 UNK         0.3079 
    118 H118       31.8668  -50.7961  -52.6304 H         1 UNK         0.0794 
    119 H119       33.6172  -51.6678  -54.1770 H         1 UNK         0.0786 
    120 H120       33.9940  -52.0692  -52.5097 H         1 UNK         0.0786 
    121 H121       34.8572  -50.7624  -53.3197 H         1 UNK         0.0786 
    122 H122       34.1907  -49.5729  -51.2879 H         1 UNK         0.3032 
    123 H123       32.2681  -47.8707  -48.8562 H         1 UNK         0.1094 
    124 H124       32.5851  -50.1544  -47.8944 H         1 UNK         0.0794 
    125 H125       34.1922  -50.2525  -48.6020 H         1 UNK         0.0794 
    126 H126       33.8475  -49.0635  -47.3467 H         1 UNK         0.0794 
    127 H127       35.0985  -48.1492  -49.5671 H         1 UNK         0.3016 
@<TRIPOS>BOND
     1    1    2 1    
     2    1   67 1    
     3    1   68 1    
     4    1   69 1    
     5    2    3 2    
     6    2    4 am   BACKBONE|DICT|INTERRES
     7    4    5 1    
     8    4   70 1    
     9    5    6 1    
    10    5   65 1    
    11    5   71 1    
    12    6    7 1    
    13    6   72 1    
    14    6   73 1    
    15    7    8 1    
    16    8    9 1    
    17    8   74 1    
    18    8   75 1    
    19    9   10 ar   
    20    9   14 ar   
    21   10   11 ar   
    22   10   76 1    
    23   11   12 ar   
    24   11   48 1    
    25   12   13 ar   
    26   12   77 1    
    27   13   14 ar   
    28   13   15 1    
    29   14   78 1    
    30   15   16 1    
    31   15   79 1    
    32   15   80 1    
    33   16   17 1    
    34   17   18 1    
    35   17   81 1    
    36   17   82 1    
    37   18   19 1    
    38   18   22 1    
    39   18   83 1    
    40   19   20 am   BACKBONE|DICT|INTERRES
    41   19   21 2    
    42   20   84 1    
    43   20   85 1    
    44   22   23 am   BACKBONE|DICT|INTERRES
    45   22   86 1    
    46   23   24 2    
    47   23   25 1    
    48   25   26 1    
    49   25   27 1    
    50   25   87 1    
    51   26   88 1    
    52   26   89 1    
    53   26   90 1    
    54   27   28 am   BACKBONE|DICT|INTERRES
    55   27   91 1    
    56   28   29 2    
    57   28   30 1    
    58   30   31 1    
    59   30   32 1    
    60   30   92 1    
    61   31   93 1    
    62   31   94 1    
    63   31   95 1    
    64   32   33 am   BACKBONE|DICT|INTERRES
    65   32   96 1    
    66   33   34 2    
    67   33   35 1    
    68   35   36 1    
    69   35   37 1    
    70   35   97 1    
    71   36   98 1    
    72   36   99 1    
    73   36  100 1    
    74   37   38 am   BACKBONE|DICT|INTERRES
    75   37  101 1    
    76   38   39 2    
    77   38   40 1    
    78   40   41 1    
    79   40   42 1    
    80   40  102 1    
    81   41  103 1    
    82   41  104 1    
    83   41  105 1    
    84   42   43 am   BACKBONE|DICT|INTERRES
    85   42  106 1    
    86   43   44 2    
    87   43   45 1    
    88   45   46 1    
    89   45   49 1    
    90   45  107 1    
    91   46   47 1    
    92   46  108 1    
    93   46  109 1    
    94   47   48 1    
    95   48  110 1    
    96   48  111 1    
    97   49   50 am   BACKBONE|DICT|INTERRES
    98   49  112 1    
    99   50   51 2    
   100   50   52 1    
   101   52   53 1    
   102   52   54 1    
   103   52  113 1    
   104   53  114 1    
   105   53  115 1    
   106   53  116 1    
   107   54   55 am   BACKBONE|DICT|INTERRES
   108   54  117 1    
   109   55   56 2    
   110   55   57 1    
   111   57   58 1    
   112   57   59 1    
   113   57  118 1    
   114   58  119 1    
   115   58  120 1    
   116   58  121 1    
   117   59   60 am   BACKBONE|DICT|INTERRES
   118   59  122 1    
   119   60   61 2    
   120   60   62 1    
   121   62   63 1    
   122   62   64 1    
   123   62  123 1    
   124   63  124 1    
   125   63  125 1    
   126   63  126 1    
   127   64   65 am   BACKBONE|DICT|INTERRES
   128   64  127 1    
   129   65   66 2    
@<TRIPOS>SUBSTRUCTURE
     1 UNK         1 GROUP             0       ****    0 ROOT    
