@<TRIPOS>MOLECULE
3R134
127   129    1
SMALL
USER_CHARGES


@<TRIPOS>ATOM
      1 CA         37.9302  -44.7709  -55.6501 C.3       0 UNK        -0.1968 
      2 C          36.7347  -45.5080  -56.2366 C.2       0 UNK         0.4852 
      3 O          36.7616  -45.8767  -57.4121 O.2       0 UNK        -0.5359 
      4 N          35.6859  -45.7175  -55.4301 N.am      1 UNK        -0.4300 
      5 CA         34.4833  -46.4690  -55.8007 C.3       1 UNK         0.0863 
      6 C6         33.3037  -46.1273  -54.8555 C.3       11 UNK        -0.0953 
      7 S7         31.6811  -46.4757  -55.6176 S.3       11 UNK        -0.2369 
      8 C8         31.0672  -44.7977  -55.9765 C.3       11 UNK         0.0226 
      9 C9         30.1791  -44.2828  -54.8546 C.ar      11 UNK        -0.0699 
     10 C10        30.7371  -43.7401  -53.6933 C.ar      11 UNK        -0.0804 
     11 C11        29.9140  -43.3316  -52.6394 C.ar      11 UNK        -0.0871 
     12 C12        28.5243  -43.4001  -52.7809 C.ar      11 UNK        -0.1008 
     13 C13        27.9554  -43.9395  -53.9363 C.ar      11 UNK        -0.0735 
     14 C14        28.7895  -44.3826  -54.9663 C.ar      11 UNK        -0.0945 
     15 C15        26.4467  -44.1090  -54.0411 C.3       11 UNK         0.0169 
     16 S16        25.7638  -43.2169  -55.4733 S.3       11 UNK        -0.2669 
     17 C17        24.6883  -44.4998  -56.2054 C.3       11 UNK        -0.0850 
     18 CA         25.4661  -45.5882  -57.0059 C.3       10 UNK         0.0855 
     19 C          24.5368  -46.7062  -57.5665 C.2       10 UNK         0.5543 
     20 N          24.7936  -47.2600  -58.7467 N.am      10 UNK        -0.7343 
     21 O          23.5819  -47.1053  -56.9050 O.2       10 UNK        -0.5027 
     22 N          26.4188  -45.0486  -57.9877 N.am      10 UNK        -0.4495 
     23 C          26.1362  -44.2558  -59.0307 C.2       10 UNK         0.4903 
     24 O          25.0216  -43.7893  -59.2668 O.2       10 UNK        -0.4860 
     25 CA         27.2936  -43.9486  -60.0015 C.3       9 UNK         0.0227 
     26 CB         27.9397  -42.5998  -59.6454 C.3       9 UNK        -0.1964 
     27 N          28.3314  -44.9853  -60.0350 N.am      9 UNK        -0.4231 
     28 C          28.1377  -46.2680  -60.3735 C.2       9 UNK         0.5014 
     29 O          27.0584  -46.7194  -60.7625 O.2       9 UNK        -0.5270 
     30 CA         29.3236  -47.2335  -60.1928 C.3       8 UNK         0.0284 
     31 CB         30.6847  -46.5405  -59.9473 C.3       8 UNK        -0.1977 
     32 N          29.0487  -48.2102  -59.1324 N.am      8 UNK        -0.4342 
     33 C          28.7448  -47.9465  -57.8526 C.2       8 UNK         0.5039 
     34 O          28.6346  -46.8095  -57.3858 O.2       8 UNK        -0.5547 
     35 CA         28.5261  -49.1607  -56.9434 C.3       7 UNK         0.0281 
     36 CB         29.7752  -50.0618  -56.8852 C.3       7 UNK        -0.1963 
     37 N          28.1689  -48.7030  -55.6007 N.am      7 UNK        -0.4444 
     38 C          27.5096  -49.4327  -54.6937 C.2       7 UNK         0.5104 
     39 O          27.1662  -50.5999  -54.8882 O.2       7 UNK        -0.5100 
     40 CA         27.2004  -48.7602  -53.3450 C.3       6 UNK         0.0396 
     41 CB         26.6537  -49.7533  -52.2961 C.3       6 UNK        -0.1801 
     42 N          28.3822  -48.0723  -52.8208 N.am      6 UNK        -0.4747 
     43 C          28.3535  -47.0922  -51.9054 C.2       6 UNK         0.5012 
     44 O          27.3105  -46.6497  -51.4196 O.2       6 UNK        -0.5003 
     45 CA         29.7228  -46.5258  -51.4675 C.3       5 UNK         0.0782 
     46 C46        29.6374  -45.4415  -50.3509 C.3       11 UNK        -0.0868 
     47 S47        31.1130  -44.3619  -50.3607 S.3       11 UNK        -0.2515 
     48 C48        30.5235  -42.9127  -51.3093 C.3       11 UNK         0.0199 
     49 N          30.6868  -47.5874  -51.1566 N.am      5 UNK        -0.4607 
     50 C          30.5973  -48.5124  -50.1926 C.2       4 UNK         0.5031 
     51 O          29.6378  -48.6200  -49.4274 O.2       4 UNK        -0.5119 
     52 CA         31.7889  -49.4875  -50.0793 C.3       4 UNK         0.0263 
     53 CB         31.7132  -50.3687  -48.8179 C.3       4 UNK        -0.1967 
     54 N          31.9178  -50.3552  -51.2547 N.am      4 UNK        -0.4237 
     55 C          32.3379  -49.9638  -52.4640 C.2       3 UNK         0.4908 
     56 O          32.6808  -48.8076  -52.7241 O.2       3 UNK        -0.5102 
     57 CA         32.3512  -51.0274  -53.5680 C.3       3 UNK         0.0241 
     58 CB         30.9412  -51.5895  -53.8285 C.3       3 UNK        -0.1971 
     59 N          32.8771  -50.4144  -54.7850 N.am      3 UNK        -0.4139 
     60 C          33.5884  -51.0290  -55.7352 C.2       2 UNK         0.5016 
     61 O          33.8184  -52.2394  -55.7364 O.2       2 UNK        -0.5319 
     62 CA         34.1455  -50.1611  -56.8829 C.3       2 UNK         0.0286 
     63 CB         33.4811  -50.5257  -58.2214 C.3       2 UNK        -0.1963 
     64 N          34.0136  -48.7142  -56.6712 N.am      2 UNK        -0.4790 
     65 C          34.7753  -47.9863  -55.8437 C.2       1 UNK         0.5024 
     66 O          35.6580  -48.4700  -55.1304 O.2       1 UNK        -0.4888 
     67 H67        38.1280  -43.8633  -56.2197 H         1 UNK         0.0892 
     68 H68        37.7663  -44.4891  -54.6101 H         1 UNK         0.0892 
     69 H69        38.8177  -45.4017  -55.6943 H         1 UNK         0.0892 
     70 H70        35.7395  -45.4262  -54.4647 H         1 UNK         0.3107 
     71 H71        34.2130  -46.1515  -56.8107 H         1 UNK         0.0773 
     72 H72        33.3391  -45.0708  -54.5907 H         1 UNK         0.0680 
     73 H73        33.3839  -46.6607  -53.9084 H         1 UNK         0.0680 
     74 H74        31.8970  -44.1124  -56.1536 H         1 UNK         0.0650 
     75 H75        30.5016  -44.8292  -56.9081 H         1 UNK         0.0650 
     76 H76        31.8107  -43.6885  -53.5817 H         1 UNK         0.1397 
     77 H77        27.8852  -43.0895  -51.9655 H         1 UNK         0.1363 
     78 H78        28.3517  -44.8136  -55.8545 H         1 UNK         0.1355 
     79 H79        26.2253  -45.1749  -54.1057 H         1 UNK         0.0707 
     80 H80        25.9483  -43.7513  -53.1389 H         1 UNK         0.0707 
     81 H81        24.1045  -44.9569  -55.4042 H         1 UNK         0.1034 
     82 H82        23.9614  -44.0041  -56.8505 H         1 UNK         0.1034 
     83 H83        26.0955  -46.1152  -56.2889 H         1 UNK         0.0482 
     84 H84        25.5730  -46.9474  -59.3137 H         1 UNK         0.3460 
     85 H85        24.1868  -47.9877  -59.0889 H         1 UNK         0.3460 
     86 H86        27.3564  -45.4328  -57.9096 H         1 UNK         0.2989 
     87 H87        26.8701  -43.8743  -61.0051 H         1 UNK         0.0559 
     88 H88        28.3963  -42.6204  -58.6547 H         1 UNK         0.0848 
     89 H89        27.1967  -41.8009  -59.6429 H         1 UNK         0.0848 
     90 H90        28.7083  -42.3218  -60.3668 H         1 UNK         0.0848 
     91 H91        29.2458  -44.7227  -59.6976 H         1 UNK         0.3144 
     92 H92        29.4029  -47.7946  -61.1252 H         1 UNK         0.0727 
     93 H93        31.4919  -47.2727  -59.9241 H         1 UNK         0.0790 
     94 H94        30.7133  -46.0003  -59.0011 H         1 UNK         0.0790 
     95 H95        30.9205  -45.8351  -60.7453 H         1 UNK         0.0790 
     96 H96        29.0619  -49.1766  -59.4267 H         1 UNK         0.3215 
     97 H97        27.6893  -49.7266  -57.3591 H         1 UNK         0.0863 
     98 H98        29.5828  -50.9612  -56.3025 H         1 UNK         0.0808 
     99 H99        30.6236  -49.5414  -56.4400 H         1 UNK         0.0808 
    100 H100       30.0751  -50.3992  -57.8768 H         1 UNK         0.0808 
    101 H101       28.3794  -47.7264  -55.4300 H         1 UNK         0.3118 
    102 H102       26.4270  -48.0164  -53.5481 H         1 UNK         0.0546 
    103 H103       27.3906  -50.5183  -52.0489 H         1 UNK         0.0828 
    104 H104       25.7616  -50.2624  -52.6628 H         1 UNK         0.0828 
    105 H105       26.3733  -49.2497  -51.3711 H         1 UNK         0.0828 
    106 H106       29.2750  -48.3838  -53.1784 H         1 UNK         0.3005 
    107 H107       30.1047  -46.0497  -52.3697 H         1 UNK         0.1257 
    108 H108       29.5435  -45.9021  -49.3668 H         1 UNK         0.0775 
    109 H109       28.7543  -44.8112  -50.4543 H         1 UNK         0.0775 
    110 H110       29.7988  -42.3605  -50.7087 H         1 UNK         0.0840 
    111 H111       31.3589  -42.2329  -51.4832 H         1 UNK         0.0840 
    112 H112       31.4988  -47.6437  -51.7660 H         1 UNK         0.2987 
    113 H113       32.6930  -48.8794  -50.0006 H         1 UNK         0.0785 
    114 H114       32.6016  -50.9920  -48.7148 H         1 UNK         0.0798 
    115 H115       30.8419  -51.0248  -48.8335 H         1 UNK         0.0798 
    116 H116       31.6442  -49.7563  -47.9177 H         1 UNK         0.0798 
    117 H117       31.6293  -51.3152  -51.1315 H         1 UNK         0.3079 
    118 H118       33.0169  -51.8326  -53.2500 H         1 UNK         0.0794 
    119 H119       30.5720  -52.1525  -52.9709 H         1 UNK         0.0786 
    120 H120       30.9362  -52.2699  -54.6801 H         1 UNK         0.0786 
    121 H121       30.2232  -50.7939  -54.0272 H         1 UNK         0.0786 
    122 H122       32.8084  -49.4043  -54.8037 H         1 UNK         0.3032 
    123 H123       35.2093  -50.3980  -56.9603 H         1 UNK         0.1094 
    124 H124       33.9587  -50.0082  -59.0536 H         1 UNK         0.0794 
    125 H125       33.5597  -51.5953  -58.4219 H         1 UNK         0.0794 
    126 H126       32.4228  -50.2688  -58.2315 H         1 UNK         0.0794 
    127 H127       33.2899  -48.2442  -57.1973 H         1 UNK         0.3016 
@<TRIPOS>BOND
     1    1    2 1    
     2    1   67 1    
     3    1   68 1    
     4    1   69 1    
     5    2    3 2    
     6    2    4 am   BACKBONE|DICT|INTERRES
     7    4    5 1    
     8    4   70 1    
     9    5    6 1    
    10    5   65 1    
    11    5   71 1    
    12    6    7 1    
    13    6   72 1    
    14    6   73 1    
    15    7    8 1    
    16    8    9 1    
    17    8   74 1    
    18    8   75 1    
    19    9   10 ar   
    20    9   14 ar   
    21   10   11 ar   
    22   10   76 1    
    23   11   12 ar   
    24   11   48 1    
    25   12   13 ar   
    26   12   77 1    
    27   13   14 ar   
    28   13   15 1    
    29   14   78 1    
    30   15   16 1    
    31   15   79 1    
    32   15   80 1    
    33   16   17 1    
    34   17   18 1    
    35   17   81 1    
    36   17   82 1    
    37   18   19 1    
    38   18   22 1    
    39   18   83 1    
    40   19   20 am   BACKBONE|DICT|INTERRES
    41   19   21 2    
    42   20   84 1    
    43   20   85 1    
    44   22   23 am   BACKBONE|DICT|INTERRES
    45   22   86 1    
    46   23   24 2    
    47   23   25 1    
    48   25   26 1    
    49   25   27 1    
    50   25   87 1    
    51   26   88 1    
    52   26   89 1    
    53   26   90 1    
    54   27   28 am   BACKBONE|DICT|INTERRES
    55   27   91 1    
    56   28   29 2    
    57   28   30 1    
    58   30   31 1    
    59   30   32 1    
    60   30   92 1    
    61   31   93 1    
    62   31   94 1    
    63   31   95 1    
    64   32   33 am   BACKBONE|DICT|INTERRES
    65   32   96 1    
    66   33   34 2    
    67   33   35 1    
    68   35   36 1    
    69   35   37 1    
    70   35   97 1    
    71   36   98 1    
    72   36   99 1    
    73   36  100 1    
    74   37   38 am   BACKBONE|DICT|INTERRES
    75   37  101 1    
    76   38   39 2    
    77   38   40 1    
    78   40   41 1    
    79   40   42 1    
    80   40  102 1    
    81   41  103 1    
    82   41  104 1    
    83   41  105 1    
    84   42   43 am   BACKBONE|DICT|INTERRES
    85   42  106 1    
    86   43   44 2    
    87   43   45 1    
    88   45   46 1    
    89   45   49 1    
    90   45  107 1    
    91   46   47 1    
    92   46  108 1    
    93   46  109 1    
    94   47   48 1    
    95   48  110 1    
    96   48  111 1    
    97   49   50 am   BACKBONE|DICT|INTERRES
    98   49  112 1    
    99   50   51 2    
   100   50   52 1    
   101   52   53 1    
   102   52   54 1    
   103   52  113 1    
   104   53  114 1    
   105   53  115 1    
   106   53  116 1    
   107   54   55 am   BACKBONE|DICT|INTERRES
   108   54  117 1    
   109   55   56 2    
   110   55   57 1    
   111   57   58 1    
   112   57   59 1    
   113   57  118 1    
   114   58  119 1    
   115   58  120 1    
   116   58  121 1    
   117   59   60 am   BACKBONE|DICT|INTERRES
   118   59  122 1    
   119   60   61 2    
   120   60   62 1    
   121   62   63 1    
   122   62   64 1    
   123   62  123 1    
   124   63  124 1    
   125   63  125 1    
   126   63  126 1    
   127   64   65 am   BACKBONE|DICT|INTERRES
   128   64  127 1    
   129   65   66 2    
@<TRIPOS>SUBSTRUCTURE
     1 UNK         1 GROUP             0       ****    0 ROOT    
