@<TRIPOS>MOLECULE
3R134
127   129    1
SMALL
USER_CHARGES


@<TRIPOS>ATOM
      1 CA         33.9052  -45.0799  -47.9744 C.3       0 UNK        -0.1968 
      2 C          32.8711  -44.1477  -48.6028 C.2       0 UNK         0.4852 
      3 O          32.3042  -43.3160  -47.8952 O.2       0 UNK        -0.5359 
      4 N          32.6004  -44.2275  -49.9135 N.am      1 UNK        -0.4300 
      5 CA         33.1087  -45.2119  -50.8751 C.3       1 UNK         0.0863 
      6 C6         32.8805  -44.7620  -52.3439 C.3       11 UNK        -0.0953 
      7 S7         31.1789  -44.1920  -52.7112 S.3       11 UNK        -0.2369 
      8 C8         31.4797  -42.7219  -53.7445 C.3       11 UNK         0.0226 
      9 C9         31.5144  -43.0511  -55.2327 C.ar      11 UNK        -0.0699 
     10 C10        32.5204  -43.8638  -55.7659 C.ar      11 UNK        -0.0804 
     11 C11        32.5617  -44.1391  -57.1363 C.ar      11 UNK        -0.0871 
     12 C12        31.5885  -43.5905  -57.9776 C.ar      11 UNK        -0.1008 
     13 C13        30.5800  -42.7731  -57.4606 C.ar      11 UNK        -0.0735 
     14 C14        30.5523  -42.5055  -56.0881 C.ar      11 UNK        -0.0945 
     15 C15        29.5514  -42.1468  -58.3947 C.3       11 UNK         0.0169 
     16 S16        28.0625  -43.1806  -58.5914 S.3       11 UNK        -0.2669 
     17 C17        27.2440  -42.9443  -56.9781 C.3       11 UNK        -0.0850 
     18 CA         27.3269  -44.2267  -56.0945 C.3       10 UNK         0.0855 
     19 C          27.2602  -43.9388  -54.5611 C.2       10 UNK         0.5543 
     20 N          26.9623  -44.9294  -53.7293 N.am      10 UNK        -0.7343 
     21 O          27.4919  -42.8189  -54.1117 O.2       10 UNK        -0.5027 
     22 N          26.3961  -45.2815  -56.5453 N.am      10 UNK        -0.4495 
     23 C          25.0578  -45.2078  -56.4759 C.2       10 UNK         0.4903 
     24 O          24.4596  -44.2153  -56.0567 O.2       10 UNK        -0.4860 
     25 CA         24.2093  -46.4244  -56.8983 C.3       9 UNK         0.0227 
     26 CB         23.1336  -46.0332  -57.9342 C.3       9 UNK        -0.1964 
     27 N          24.9453  -47.6175  -57.3307 N.am      9 UNK        -0.4231 
     28 C          25.6698  -47.8106  -58.4400 C.2       9 UNK         0.5014 
     29 O          25.8912  -46.9325  -59.2748 O.2       9 UNK        -0.5270 
     30 CA         26.2197  -49.2400  -58.6516 C.3       8 UNK         0.0284 
     31 CB         27.1399  -49.3408  -59.8821 C.3       8 UNK        -0.1977 
     32 N          26.9315  -49.7600  -57.4786 N.am      8 UNK        -0.4342 
     33 C          26.3694  -50.1732  -56.3339 C.2       8 UNK         0.5039 
     34 O          25.1515  -50.2217  -56.1554 O.2       8 UNK        -0.5547 
     35 CA         27.3160  -50.5092  -55.1695 C.3       7 UNK         0.0281 
     36 CB         27.8746  -51.9345  -55.3023 C.3       7 UNK        -0.1963 
     37 N          28.4171  -49.5505  -55.0520 N.am      7 UNK        -0.4444 
     38 C          28.2700  -48.2428  -54.7875 C.2       7 UNK         0.5104 
     39 O          27.1912  -47.7004  -54.5456 O.2       7 UNK        -0.5100 
     40 CA         29.5471  -47.3914  -54.8404 C.3       6 UNK         0.0396 
     41 CB         30.3503  -47.5381  -53.5397 C.3       6 UNK        -0.1801 
     42 N          30.3774  -47.7487  -55.9918 N.am      6 UNK        -0.4747 
     43 C          30.0555  -47.4890  -57.2690 C.2       6 UNK         0.5012 
     44 O          29.0455  -46.8717  -57.6046 O.2       6 UNK        -0.5003 
     45 CA         30.9853  -48.0676  -58.3585 C.3       5 UNK         0.0782 
     46 C46        32.0911  -47.0738  -58.7879 C.3       11 UNK        -0.0868 
     47 S47        33.3672  -46.7760  -57.5125 S.3       11 UNK        -0.2515 
     48 C48        33.6833  -44.9942  -57.7096 C.3       11 UNK         0.0199 
     49 N          31.5373  -49.3754  -57.9918 N.am      5 UNK        -0.4607 
     50 C          30.8159  -50.4981  -57.8800 C.2       4 UNK         0.5031 
     51 O          29.6118  -50.5581  -58.1197 O.2       4 UNK        -0.5119 
     52 CA         31.5468  -51.7515  -57.3652 C.3       4 UNK         0.0263 
     53 CB         32.1840  -52.5201  -58.5332 C.3       4 UNK        -0.1967 
     54 N          32.5667  -51.4591  -56.3506 N.am      4 UNK        -0.4237 
     55 C          32.3187  -50.8549  -55.1809 C.2       3 UNK         0.4908 
     56 O          31.1912  -50.5013  -54.8215 O.2       3 UNK        -0.5102 
     57 CA         33.5300  -50.5478  -54.2913 C.3       3 UNK         0.0241 
     58 CB         34.4757  -49.5386  -54.9777 C.3       3 UNK        -0.1971 
     59 N          33.0339  -49.9937  -53.0353 N.am      3 UNK        -0.4139 
     60 C          33.7341  -49.7953  -51.9161 C.2       2 UNK         0.5016 
     61 O          34.9213  -50.0965  -51.7787 O.2       2 UNK        -0.5319 
     62 CA         33.0041  -49.0575  -50.7896 C.3       2 UNK         0.0286 
     63 CB         33.4069  -49.5614  -49.3904 C.3       2 UNK        -0.1963 
     64 N          33.3399  -47.6435  -50.9248 N.am      2 UNK        -0.4790 
     65 C          32.5366  -46.6218  -50.6125 C.2       1 UNK         0.5024 
     66 O          31.4047  -46.7588  -50.1431 O.2       1 UNK        -0.4888 
     67 H67        34.8371  -45.0816  -48.5382 H         1 UNK         0.0892 
     68 H68        33.5240  -46.0988  -47.9153 H         1 UNK         0.0892 
     69 H69        34.1402  -44.7566  -46.9605 H         1 UNK         0.0892 
     70 H70        31.8897  -43.6176  -50.2918 H         1 UNK         0.3107 
     71 H71        34.1893  -45.2731  -50.7344 H         1 UNK         0.0773 
     72 H72        33.5761  -43.9513  -52.5630 H         1 UNK         0.0680 
     73 H73        33.1424  -45.5579  -53.0434 H         1 UNK         0.0680 
     74 H74        30.6821  -42.0068  -53.5372 H         1 UNK         0.0650 
     75 H75        32.4060  -42.2258  -53.4534 H         1 UNK         0.0650 
     76 H76        33.2780  -44.2782  -55.1166 H         1 UNK         0.1397 
     77 H77        31.6219  -43.7856  -59.0406 H         1 UNK         0.1363 
     78 H78        29.7874  -41.8592  -55.6822 H         1 UNK         0.1355 
     79 H79        29.9963  -41.9932  -59.3791 H         1 UNK         0.0707 
     80 H80        29.2690  -41.1546  -58.0392 H         1 UNK         0.0707 
     81 H81        27.6940  -42.0817  -56.4887 H         1 UNK         0.1034 
     82 H82        26.2090  -42.6499  -57.1519 H         1 UNK         0.1034 
     83 H83        28.3264  -44.6390  -56.2295 H         1 UNK         0.0482 
     84 H84        26.8307  -45.8743  -54.0776 H         1 UNK         0.3460 
     85 H85        26.9215  -44.7459  -52.7402 H         1 UNK         0.3460 
     86 H86        26.8279  -46.1198  -56.9112 H         1 UNK         0.2989 
     87 H87        23.6845  -46.7349  -55.9938 H         1 UNK         0.0559 
     88 H88        22.4989  -46.8816  -58.1895 H         1 UNK         0.0848 
     89 H89        23.5768  -45.6546  -58.8557 H         1 UNK         0.0848 
     90 H90        22.4811  -45.2499  -57.5463 H         1 UNK         0.0848 
     91 H91        24.8602  -48.4258  -56.7170 H         1 UNK         0.3144 
     92 H92        25.3571  -49.8839  -58.8350 H         1 UNK         0.0727 
     93 H93        27.4910  -50.3616  -60.0345 H         1 UNK         0.0790 
     94 H94        28.0136  -48.6968  -59.7803 H         1 UNK         0.0790 
     95 H95        26.6159  -49.0402  -60.7903 H         1 UNK         0.0790 
     96 H96        27.9444  -49.8097  -57.5584 H         1 UNK         0.3215 
     97 H97        26.7361  -50.4556  -54.2457 H         1 UNK         0.0863 
     98 H98        28.5285  -52.1849  -54.4666 H         1 UNK         0.0808 
     99 H99        28.4435  -52.0641  -56.2225 H         1 UNK         0.0808 
    100 H100       27.0670  -52.6676  -55.3145 H         1 UNK         0.0808 
    101 H101       29.3591  -49.9078  -55.1857 H         1 UNK         0.3118 
    102 H102       29.2682  -46.3421  -54.9434 H         1 UNK         0.0546 
    103 H103       29.8387  -47.0356  -52.7176 H         1 UNK         0.0828 
    104 H104       31.3396  -47.0916  -53.6283 H         1 UNK         0.0828 
    105 H105       30.4742  -48.5783  -53.2441 H         1 UNK         0.0828 
    106 H106       31.2012  -48.3026  -55.8085 H         1 UNK         0.3005 
    107 H107       30.3514  -48.2285  -59.2336 H         1 UNK         0.1257 
    108 H108       31.6389  -46.1321  -59.0982 H         1 UNK         0.0775 
    109 H109       32.5969  -47.4560  -59.6757 H         1 UNK         0.0775 
    110 H110       34.6188  -44.7486  -57.2048 H         1 UNK         0.0840 
    111 H111       33.8438  -44.7667  -58.7647 H         1 UNK         0.0840 
    112 H112       32.5227  -49.3991  -57.7747 H         1 UNK         0.2987 
    113 H113       30.7990  -52.3972  -56.9007 H         1 UNK         0.0785 
    114 H114       32.6223  -53.4604  -58.1981 H         1 UNK         0.0798 
    115 H115       32.9666  -51.9389  -59.0226 H         1 UNK         0.0798 
    116 H116       31.4381  -52.7653  -59.2909 H         1 UNK         0.0798 
    117 H117       33.5164  -51.7221  -56.5729 H         1 UNK         0.3079 
    118 H118       34.0576  -51.4820  -54.0888 H         1 UNK         0.0794 
    119 H119       33.9816  -48.5819  -55.1500 H         1 UNK         0.0786 
    120 H120       34.8288  -49.9045  -55.9422 H         1 UNK         0.0786 
    121 H121       35.3620  -49.3463  -54.3732 H         1 UNK         0.0786 
    122 H122       32.0474  -49.7687  -53.0682 H         1 UNK         0.3032 
    123 H123       31.9282  -49.2036  -50.9144 H         1 UNK         0.1094 
    124 H124       34.4675  -49.4030  -49.1909 H         1 UNK         0.0794 
    125 H125       32.8417  -49.0525  -48.6094 H         1 UNK         0.0794 
    126 H126       33.2104  -50.6295  -49.2900 H         1 UNK         0.0794 
    127 H127       34.2484  -47.4587  -51.3307 H         1 UNK         0.3016 
@<TRIPOS>BOND
     1    1    2 1    
     2    1   67 1    
     3    1   68 1    
     4    1   69 1    
     5    2    3 2    
     6    2    4 am   BACKBONE|DICT|INTERRES
     7    4    5 1    
     8    4   70 1    
     9    5    6 1    
    10    5   65 1    
    11    5   71 1    
    12    6    7 1    
    13    6   72 1    
    14    6   73 1    
    15    7    8 1    
    16    8    9 1    
    17    8   74 1    
    18    8   75 1    
    19    9   10 ar   
    20    9   14 ar   
    21   10   11 ar   
    22   10   76 1    
    23   11   12 ar   
    24   11   48 1    
    25   12   13 ar   
    26   12   77 1    
    27   13   14 ar   
    28   13   15 1    
    29   14   78 1    
    30   15   16 1    
    31   15   79 1    
    32   15   80 1    
    33   16   17 1    
    34   17   18 1    
    35   17   81 1    
    36   17   82 1    
    37   18   19 1    
    38   18   22 1    
    39   18   83 1    
    40   19   20 am   BACKBONE|DICT|INTERRES
    41   19   21 2    
    42   20   84 1    
    43   20   85 1    
    44   22   23 am   BACKBONE|DICT|INTERRES
    45   22   86 1    
    46   23   24 2    
    47   23   25 1    
    48   25   26 1    
    49   25   27 1    
    50   25   87 1    
    51   26   88 1    
    52   26   89 1    
    53   26   90 1    
    54   27   28 am   BACKBONE|DICT|INTERRES
    55   27   91 1    
    56   28   29 2    
    57   28   30 1    
    58   30   31 1    
    59   30   32 1    
    60   30   92 1    
    61   31   93 1    
    62   31   94 1    
    63   31   95 1    
    64   32   33 am   BACKBONE|DICT|INTERRES
    65   32   96 1    
    66   33   34 2    
    67   33   35 1    
    68   35   36 1    
    69   35   37 1    
    70   35   97 1    
    71   36   98 1    
    72   36   99 1    
    73   36  100 1    
    74   37   38 am   BACKBONE|DICT|INTERRES
    75   37  101 1    
    76   38   39 2    
    77   38   40 1    
    78   40   41 1    
    79   40   42 1    
    80   40  102 1    
    81   41  103 1    
    82   41  104 1    
    83   41  105 1    
    84   42   43 am   BACKBONE|DICT|INTERRES
    85   42  106 1    
    86   43   44 2    
    87   43   45 1    
    88   45   46 1    
    89   45   49 1    
    90   45  107 1    
    91   46   47 1    
    92   46  108 1    
    93   46  109 1    
    94   47   48 1    
    95   48  110 1    
    96   48  111 1    
    97   49   50 am   BACKBONE|DICT|INTERRES
    98   49  112 1    
    99   50   51 2    
   100   50   52 1    
   101   52   53 1    
   102   52   54 1    
   103   52  113 1    
   104   53  114 1    
   105   53  115 1    
   106   53  116 1    
   107   54   55 am   BACKBONE|DICT|INTERRES
   108   54  117 1    
   109   55   56 2    
   110   55   57 1    
   111   57   58 1    
   112   57   59 1    
   113   57  118 1    
   114   58  119 1    
   115   58  120 1    
   116   58  121 1    
   117   59   60 am   BACKBONE|DICT|INTERRES
   118   59  122 1    
   119   60   61 2    
   120   60   62 1    
   121   62   63 1    
   122   62   64 1    
   123   62  123 1    
   124   63  124 1    
   125   63  125 1    
   126   63  126 1    
   127   64   65 am   BACKBONE|DICT|INTERRES
   128   64  127 1    
   129   65   66 2    
@<TRIPOS>SUBSTRUCTURE
     1 UNK         1 GROUP             0       ****    0 ROOT    
