@<TRIPOS>MOLECULE
3R134
127   129    1
SMALL
USER_CHARGES


@<TRIPOS>ATOM
      1 CA         37.0562  -45.5812  -55.9284 C.3       0 UNK        -0.1968 
      2 C          36.2971  -45.6096  -54.6102 C.2       0 UNK         0.4852 
      3 O          36.9141  -45.7834  -53.5578 O.2       0 UNK        -0.5359 
      4 N          34.9661  -45.4536  -54.6673 N.am      1 UNK        -0.4300 
      5 CA         33.9980  -45.4191  -53.5561 C.3       1 UNK         0.0863 
      6 C6         34.2543  -44.3059  -52.5044 C.3       11 UNK        -0.0953 
      7 S7         34.4150  -42.6483  -53.2515 S.3       11 UNK        -0.2369 
      8 C8         32.8201  -41.8745  -52.8272 C.3       11 UNK         0.0226 
      9 C9         31.6279  -42.5297  -53.5160 C.ar      11 UNK        -0.0699 
     10 C10        30.5165  -42.9256  -52.7628 C.ar      11 UNK        -0.0804 
     11 C11        29.4003  -43.4941  -53.3856 C.ar      11 UNK        -0.0871 
     12 C12        29.4036  -43.6607  -54.7726 C.ar      11 UNK        -0.1008 
     13 C13        30.5062  -43.2762  -55.5364 C.ar      11 UNK        -0.0735 
     14 C14        31.6135  -42.7033  -54.9054 C.ar      11 UNK        -0.0945 
     15 C15        30.4753  -43.4700  -57.0429 C.3       11 UNK         0.0169 
     16 S16        29.5281  -42.1331  -57.8310 S.3       11 UNK        -0.2669 
     17 C17        28.8770  -42.9556  -59.3238 C.3       11 UNK        -0.0850 
     18 CA         27.3849  -43.3578  -59.1585 C.3       10 UNK         0.0855 
     19 C          26.7175  -43.6780  -60.5303 C.2       10 UNK         0.5543 
     20 N          26.0464  -44.8090  -60.7131 N.am      10 UNK        -0.7343 
     21 O          26.7995  -42.8711  -61.4531 O.2       10 UNK        -0.5027 
     22 N          27.2204  -44.4180  -58.1490 N.am      10 UNK        -0.4495 
     23 C          26.1494  -44.5734  -57.3600 C.2       10 UNK         0.4903 
     24 O          25.2088  -43.7790  -57.3171 O.2       10 UNK        -0.4860 
     25 CA         26.1290  -45.8454  -56.4834 C.3       9 UNK         0.0227 
     26 CB         24.7205  -46.1856  -55.9538 C.3       9 UNK        -0.1964 
     27 N          26.7272  -47.0162  -57.1414 N.am      9 UNK        -0.4231 
     28 C          26.3568  -47.5637  -58.3099 C.2       9 UNK         0.5014 
     29 O          25.4371  -47.1373  -59.0085 O.2       9 UNK        -0.5270 
     30 CA         27.1662  -48.7675  -58.8047 C.3       8 UNK         0.0284 
     31 CB         28.4695  -48.2968  -59.4744 C.3       8 UNK        -0.1977 
     32 N          27.4825  -49.6938  -57.7145 N.am      8 UNK        -0.4342 
     33 C          27.0393  -50.9544  -57.6365 C.2       8 UNK         0.5039 
     34 O          26.2826  -51.4706  -58.4608 O.2       8 UNK        -0.5547 
     35 CA         27.5409  -51.8057  -56.4596 C.3       7 UNK         0.0281 
     36 CB         28.9066  -52.4292  -56.7921 C.3       7 UNK        -0.1963 
     37 N          27.6347  -51.0844  -55.1891 N.am      7 UNK        -0.4444 
     38 C          26.5828  -50.7152  -54.4448 C.2       7 UNK         0.5104 
     39 O          25.4112  -50.8347  -54.8035 O.2       7 UNK        -0.5100 
     40 CA         26.8884  -50.1486  -53.0492 C.3       6 UNK         0.0396 
     41 CB         27.2581  -51.2806  -52.0764 C.3       6 UNK        -0.1801 
     42 N          27.9778  -49.1742  -53.0958 N.am      6 UNK        -0.4747 
     43 C          27.7996  -47.8499  -53.2028 C.2       6 UNK         0.5012 
     44 O          26.6935  -47.3097  -53.2001 O.2       6 UNK        -0.5003 
     45 CA         29.0605  -46.9782  -53.3943 C.3       5 UNK         0.0782 
     46 C46        29.5802  -46.3746  -52.0647 C.3       11 UNK        -0.0868 
     47 S47        28.5260  -45.1181  -51.2598 S.3       11 UNK        -0.2515 
     48 C48        28.1728  -43.9058  -52.5788 C.3       11 UNK         0.0199 
     49 N          30.1438  -47.6720  -54.0983 N.am      5 UNK        -0.4607 
     50 C          30.0685  -48.1424  -55.3490 C.2       4 UNK         0.5031 
     51 O          29.0734  -48.0214  -56.0619 O.2       4 UNK        -0.5119 
     52 CA         31.2784  -48.9210  -55.8872 C.3       4 UNK         0.0263 
     53 CB         32.2847  -47.9542  -56.5297 C.3       4 UNK        -0.1967 
     54 N          31.9634  -49.7458  -54.8865 N.am      4 UNK        -0.4237 
     55 C          31.4118  -50.6753  -54.0937 C.2       3 UNK         0.4908 
     56 O          30.2093  -50.9389  -54.0892 O.2       3 UNK        -0.5102 
     57 CA         32.3385  -51.4160  -53.1106 C.3       3 UNK         0.0241 
     58 CB         33.0548  -52.5932  -53.8004 C.3       3 UNK        -0.1971 
     59 N          33.2771  -50.5373  -52.3940 N.am      3 UNK        -0.4139 
     60 C          34.2951  -49.8223  -52.8929 C.2       2 UNK         0.5016 
     61 O          34.6725  -49.8746  -54.0665 O.2       2 UNK        -0.5319 
     62 CA         34.9494  -48.8087  -51.9403 C.3       2 UNK         0.0286 
     63 CB         36.4087  -49.1930  -51.6492 C.3       2 UNK        -0.1963 
     64 N          34.9087  -47.4568  -52.5043 N.am      2 UNK        -0.4790 
     65 C          33.8064  -46.7912  -52.8762 C.2       1 UNK         0.5024 
     66 O          32.6667  -47.2326  -52.7245 O.2       1 UNK        -0.4888 
     67 H67        37.5810  -46.5243  -56.0787 H         1 UNK         0.0892 
     68 H68        37.7931  -44.7785  -55.9182 H         1 UNK         0.0892 
     69 H69        36.3941  -45.4222  -56.7792 H         1 UNK         0.0892 
     70 H70        34.5479  -45.3310  -55.5783 H         1 UNK         0.3107 
     71 H71        33.0405  -45.1909  -54.0278 H         1 UNK         0.0773 
     72 H72        35.1677  -44.5077  -51.9427 H         1 UNK         0.0680 
     73 H73        33.4481  -44.2868  -51.7684 H         1 UNK         0.0680 
     74 H74        32.7016  -41.8859  -51.7426 H         1 UNK         0.0650 
     75 H75        32.8551  -40.8247  -53.1208 H         1 UNK         0.0650 
     76 H76        30.5124  -42.7861  -51.6902 H         1 UNK         0.1397 
     77 H77        28.5404  -44.0782  -55.2703 H         1 UNK         0.1363 
     78 H78        32.4633  -42.3867  -55.4947 H         1 UNK         0.1355 
     79 H79        30.0269  -44.4381  -57.2701 H         1 UNK         0.0707 
     80 H80        31.4854  -43.4916  -57.4548 H         1 UNK         0.0707 
     81 H81        29.4908  -43.8187  -59.5870 H         1 UNK         0.1034 
     82 H82        28.9964  -42.2460  -60.1449 H         1 UNK         0.1034 
     83 H83        26.8574  -42.4717  -58.8002 H         1 UNK         0.0482 
     84 H84        25.9191  -45.4828  -59.9659 H         1 UNK         0.3460 
     85 H85        25.6223  -44.9812  -61.6105 H         1 UNK         0.3460 
     86 H86        27.9284  -45.1355  -58.1401 H         1 UNK         0.2989 
     87 H87        26.7573  -45.6306  -55.6189 H         1 UNK         0.0559 
     88 H88        24.7405  -47.0740  -55.3222 H         1 UNK         0.0848 
     89 H89        24.0151  -46.3658  -56.7656 H         1 UNK         0.0848 
     90 H90        24.3214  -45.3706  -55.3489 H         1 UNK         0.0848 
     91 H91        27.5456  -47.4078  -56.6760 H         1 UNK         0.3144 
     92 H92        26.5638  -49.2655  -59.5675 H         1 UNK         0.0727 
     93 H93        29.0186  -49.1375  -59.8986 H         1 UNK         0.0790 
     94 H94        29.1316  -47.7877  -58.7732 H         1 UNK         0.0790 
     95 H95        28.2609  -47.6028  -60.2900 H         1 UNK         0.0790 
     96 H96        28.0818  -49.3345  -56.9767 H         1 UNK         0.3215 
     97 H97        26.8276  -52.6219  -56.3237 H         1 UNK         0.0863 
     98 H98        29.2363  -53.1058  -56.0034 H         1 UNK         0.0808 
     99 H99        29.6776  -51.6699  -56.9233 H         1 UNK         0.0808 
    100 H100       28.8577  -53.0077  -57.7157 H         1 UNK         0.0808 
    101 H101       28.5686  -50.9798  -54.7950 H         1 UNK         0.3118 
    102 H102       25.9788  -49.6755  -52.6727 H         1 UNK         0.0546 
    103 H103       26.4598  -52.0219  -52.0201 H         1 UNK         0.0828 
    104 H104       27.4156  -50.8984  -51.0679 H         1 UNK         0.0828 
    105 H105       28.1661  -51.8023  -52.3814 H         1 UNK         0.0828 
    106 H106       28.9168  -49.5475  -53.1731 H         1 UNK         0.3005 
    107 H107       28.7559  -46.1685  -54.0531 H         1 UNK         0.1257 
    108 H108       30.5381  -45.8842  -52.2401 H         1 UNK         0.0775 
    109 H109       29.7864  -47.1665  -51.3424 H         1 UNK         0.0775 
    110 H110       27.3983  -44.3175  -53.2281 H         1 UNK         0.0840 
    111 H111       27.7375  -43.0149  -52.1242 H         1 UNK         0.0840 
    112 H112       31.0191  -47.7687  -53.5908 H         1 UNK         0.2987 
    113 H113       30.9110  -49.5946  -56.6630 H         1 UNK         0.0785 
    114 H114       32.7126  -47.2726  -55.7947 H         1 UNK         0.0798 
    115 H115       31.8074  -47.3472  -57.3007 H         1 UNK         0.0798 
    116 H116       33.1050  -48.4930  -57.0044 H         1 UNK         0.0798 
    117 H117       32.9694  -49.6200  -54.7965 H         1 UNK         0.3079 
    118 H118       31.6914  -51.8396  -52.3407 H         1 UNK         0.0794 
    119 H119       33.7026  -52.2635  -54.6130 H         1 UNK         0.0786 
    120 H120       32.3312  -53.2884  -54.2285 H         1 UNK         0.0786 
    121 H121       33.6644  -53.1552  -53.0928 H         1 UNK         0.0786 
    122 H122       33.0406  -50.3845  -51.4230 H         1 UNK         0.3032 
    123 H123       34.3991  -48.7911  -50.9972 H         1 UNK         0.1094 
    124 H124       37.0136  -49.1925  -52.5572 H         1 UNK         0.0794 
    125 H125       36.8676  -48.5025  -50.9413 H         1 UNK         0.0794 
    126 H126       36.4711  -50.1919  -51.2153 H         1 UNK         0.0794 
    127 H127       35.8002  -47.0142  -52.7180 H         1 UNK         0.3016 
@<TRIPOS>BOND
     1    1    2 1    
     2    1   67 1    
     3    1   68 1    
     4    1   69 1    
     5    2    3 2    
     6    2    4 am   BACKBONE|DICT|INTERRES
     7    4    5 1    
     8    4   70 1    
     9    5    6 1    
    10    5   65 1    
    11    5   71 1    
    12    6    7 1    
    13    6   72 1    
    14    6   73 1    
    15    7    8 1    
    16    8    9 1    
    17    8   74 1    
    18    8   75 1    
    19    9   10 ar   
    20    9   14 ar   
    21   10   11 ar   
    22   10   76 1    
    23   11   12 ar   
    24   11   48 1    
    25   12   13 ar   
    26   12   77 1    
    27   13   14 ar   
    28   13   15 1    
    29   14   78 1    
    30   15   16 1    
    31   15   79 1    
    32   15   80 1    
    33   16   17 1    
    34   17   18 1    
    35   17   81 1    
    36   17   82 1    
    37   18   19 1    
    38   18   22 1    
    39   18   83 1    
    40   19   20 am   BACKBONE|DICT|INTERRES
    41   19   21 2    
    42   20   84 1    
    43   20   85 1    
    44   22   23 am   BACKBONE|DICT|INTERRES
    45   22   86 1    
    46   23   24 2    
    47   23   25 1    
    48   25   26 1    
    49   25   27 1    
    50   25   87 1    
    51   26   88 1    
    52   26   89 1    
    53   26   90 1    
    54   27   28 am   BACKBONE|DICT|INTERRES
    55   27   91 1    
    56   28   29 2    
    57   28   30 1    
    58   30   31 1    
    59   30   32 1    
    60   30   92 1    
    61   31   93 1    
    62   31   94 1    
    63   31   95 1    
    64   32   33 am   BACKBONE|DICT|INTERRES
    65   32   96 1    
    66   33   34 2    
    67   33   35 1    
    68   35   36 1    
    69   35   37 1    
    70   35   97 1    
    71   36   98 1    
    72   36   99 1    
    73   36  100 1    
    74   37   38 am   BACKBONE|DICT|INTERRES
    75   37  101 1    
    76   38   39 2    
    77   38   40 1    
    78   40   41 1    
    79   40   42 1    
    80   40  102 1    
    81   41  103 1    
    82   41  104 1    
    83   41  105 1    
    84   42   43 am   BACKBONE|DICT|INTERRES
    85   42  106 1    
    86   43   44 2    
    87   43   45 1    
    88   45   46 1    
    89   45   49 1    
    90   45  107 1    
    91   46   47 1    
    92   46  108 1    
    93   46  109 1    
    94   47   48 1    
    95   48  110 1    
    96   48  111 1    
    97   49   50 am   BACKBONE|DICT|INTERRES
    98   49  112 1    
    99   50   51 2    
   100   50   52 1    
   101   52   53 1    
   102   52   54 1    
   103   52  113 1    
   104   53  114 1    
   105   53  115 1    
   106   53  116 1    
   107   54   55 am   BACKBONE|DICT|INTERRES
   108   54  117 1    
   109   55   56 2    
   110   55   57 1    
   111   57   58 1    
   112   57   59 1    
   113   57  118 1    
   114   58  119 1    
   115   58  120 1    
   116   58  121 1    
   117   59   60 am   BACKBONE|DICT|INTERRES
   118   59  122 1    
   119   60   61 2    
   120   60   62 1    
   121   62   63 1    
   122   62   64 1    
   123   62  123 1    
   124   63  124 1    
   125   63  125 1    
   126   63  126 1    
   127   64   65 am   BACKBONE|DICT|INTERRES
   128   64  127 1    
   129   65   66 2    
@<TRIPOS>SUBSTRUCTURE
     1 UNK         1 GROUP             0       ****    0 ROOT    
