@<TRIPOS>MOLECULE
3R134
127   129    1
SMALL
USER_CHARGES


@<TRIPOS>ATOM
      1 CA         37.8333  -45.8523  -58.3903 C.3       0 UNK        -0.1968 
      2 C          36.8468  -46.0665  -57.2520 C.2       0 UNK         0.4852 
      3 O          37.1879  -45.8142  -56.0950 O.2       0 UNK        -0.5359 
      4 N          35.6339  -46.5426  -57.5701 N.am      1 UNK        -0.4300 
      5 CA         34.5044  -46.8218  -56.6698 C.3       1 UNK         0.0863 
      6 C6         34.0380  -45.5783  -55.8664 C.3       11 UNK        -0.0953 
      7 S7         32.3563  -45.7513  -55.1845 S.3       11 UNK        -0.2369 
      8 C8         32.2693  -44.2254  -54.2022 C.3       11 UNK         0.0226 
      9 C9         30.9137  -44.0825  -53.5315 C.ar      11 UNK        -0.0699 
     10 C10        30.7061  -44.5876  -52.2459 C.ar      11 UNK        -0.0804 
     11 C11        29.4576  -44.4626  -51.6292 C.ar      11 UNK        -0.0871 
     12 C12        28.4143  -43.8233  -52.3051 C.ar      11 UNK        -0.1008 
     13 C13        28.6090  -43.3198  -53.5948 C.ar      11 UNK        -0.0735 
     14 C14        29.8648  -43.4420  -54.1959 C.ar      11 UNK        -0.0945 
     15 C15        27.4731  -42.6345  -54.3405 C.3       11 UNK         0.0169 
     16 S16        26.0297  -43.7275  -54.5297 S.3       11 UNK        -0.2669 
     17 C17        25.1939  -42.9569  -55.9566 C.3       11 UNK        -0.0850 
     18 CA         25.2304  -43.8389  -57.2357 C.3       10 UNK         0.0855 
     19 C          24.3016  -43.2583  -58.3324 C.2       10 UNK         0.5543 
     20 N          23.0001  -43.4866  -58.2264 N.am      10 UNK        -0.7343 
     21 O          24.7435  -42.5833  -59.2615 O.2       10 UNK        -0.5027 
     22 N          26.5849  -44.0213  -57.7794 N.am      10 UNK        -0.4495 
     23 C          27.3820  -45.0659  -57.5397 C.2       10 UNK         0.4903 
     24 O          27.1412  -45.9481  -56.7122 O.2       10 UNK        -0.4860 
     25 CA         28.6603  -45.1645  -58.3801 C.3       9 UNK         0.0227 
     26 CB         29.7528  -44.2005  -57.8906 C.3       9 UNK        -0.1964 
     27 N          29.1309  -46.5363  -58.2636 N.am      9 UNK        -0.4231 
     28 C          29.8410  -47.2320  -59.1520 C.2       9 UNK         0.5014 
     29 O          30.2835  -46.7648  -60.2023 O.2       9 UNK        -0.5270 
     30 CA         30.0924  -48.7095  -58.8078 C.3       8 UNK         0.0284 
     31 CB         31.4736  -48.8750  -58.1605 C.3       8 UNK        -0.1977 
     32 N          29.0564  -49.2734  -57.9282 N.am      8 UNK        -0.4342 
     33 C          27.8611  -49.6882  -58.3749 C.2       8 UNK         0.5039 
     34 O          27.5274  -49.6519  -59.5602 O.2       8 UNK        -0.5547 
     35 CA         26.8604  -50.2164  -57.3413 C.3       7 UNK         0.0281 
     36 CB         27.3939  -51.4438  -56.5824 C.3       7 UNK        -0.1963 
     37 N          26.4912  -49.1615  -56.3993 N.am      7 UNK        -0.4444 
     38 C          25.2363  -48.8441  -56.0520 C.2       7 UNK         0.5104 
     39 O          24.2415  -49.4180  -56.4997 O.2       7 UNK        -0.5100 
     40 CA         25.0475  -47.6859  -55.0470 C.3       6 UNK         0.0396 
     41 CB         23.8105  -47.8743  -54.1432 C.3       6 UNK        -0.1801 
     42 N          26.2448  -47.3817  -54.2514 N.am      6 UNK        -0.4747 
     43 C          26.8433  -48.1864  -53.3623 C.2       6 UNK         0.5012 
     44 O          26.4275  -49.3069  -53.0569 O.2       6 UNK        -0.5003 
     45 CA         28.1256  -47.6563  -52.6930 C.3       5 UNK         0.0782 
     46 C46        27.8232  -47.2836  -51.2152 C.3       11 UNK        -0.0868 
     47 S47        29.3012  -46.8440  -50.2357 S.3       11 UNK        -0.2515 
     48 C48        29.2374  -45.0269  -50.2355 C.3       11 UNK         0.0199 
     49 N          29.2147  -48.6300  -52.8012 N.am      5 UNK        -0.4607 
     50 C          29.7255  -49.1585  -53.9205 C.2       4 UNK         0.5031 
     51 O          29.3415  -48.8869  -55.0633 O.2       4 UNK        -0.5119 
     52 CA         30.8991  -50.1294  -53.6970 C.3       4 UNK         0.0263 
     53 CB         31.2782  -50.9293  -54.9531 C.3       4 UNK        -0.1967 
     54 N          32.0712  -49.3917  -53.2204 N.am      4 UNK        -0.4237 
     55 C          32.2897  -49.0655  -51.9369 C.2       3 UNK         0.4908 
     56 O          31.5512  -49.4333  -51.0213 O.2       3 UNK        -0.5102 
     57 CA         33.4958  -48.1560  -51.6166 C.3       3 UNK         0.0241 
     58 CB         34.0276  -48.3524  -50.1808 C.3       3 UNK        -0.1971 
     59 N          34.5843  -48.2378  -52.5968 N.am      3 UNK        -0.4139 
     60 C          35.3185  -49.3130  -52.9245 C.2       2 UNK         0.5016 
     61 O          35.2329  -50.4044  -52.3591 O.2       2 UNK        -0.5319 
     62 CA         36.2985  -49.1329  -54.1057 C.3       2 UNK         0.0286 
     63 CB         36.5870  -50.4607  -54.8379 C.3       2 UNK        -0.1963 
     64 N          35.8795  -48.1008  -55.0689 N.am      2 UNK        -0.4790 
     65 C          34.7294  -48.0470  -55.7576 C.2       1 UNK         0.5024 
     66 O          33.8472  -48.9002  -55.6700 O.2       1 UNK        -0.4888 
     67 H67        38.7209  -46.4656  -58.2373 H         1 UNK         0.0892 
     68 H68        37.4043  -46.1116  -59.3580 H         1 UNK         0.0892 
     69 H69        38.1425  -44.8080  -58.4258 H         1 UNK         0.0892 
     70 H70        35.4495  -46.7549  -58.5412 H         1 UNK         0.3107 
     71 H71        33.6894  -47.0906  -57.3423 H         1 UNK         0.0773 
     72 H72        34.0338  -44.7020  -56.5166 H         1 UNK         0.0680 
     73 H73        34.7324  -45.3497  -55.0559 H         1 UNK         0.0680 
     74 H74        32.4589  -43.3672  -54.8489 H         1 UNK         0.0650 
     75 H75        33.0618  -44.2306  -53.4522 H         1 UNK         0.0650 
     76 H76        31.5119  -45.0880  -51.7269 H         1 UNK         0.1397 
     77 H77        27.4445  -43.7260  -51.8360 H         1 UNK         0.1363 
     78 H78        30.0290  -43.0367  -55.1836 H         1 UNK         0.1355 
     79 H79        27.1764  -41.7317  -53.8051 H         1 UNK         0.0707 
     80 H80        27.8122  -42.3171  -55.3280 H         1 UNK         0.0707 
     81 H81        24.1614  -42.7743  -55.6527 H         1 UNK         0.1034 
     82 H82        25.6183  -41.9720  -56.1591 H         1 UNK         0.1034 
     83 H83        24.8261  -44.8218  -56.9871 H         1 UNK         0.0482 
     84 H84        22.3789  -43.1085  -58.9248 H         1 UNK         0.3460 
     85 H85        22.6243  -44.0339  -57.4676 H         1 UNK         0.3460 
     86 H86        26.8307  -43.3627  -58.5066 H         1 UNK         0.2989 
     87 H87        28.4080  -44.9478  -59.4201 H         1 UNK         0.0559 
     88 H88        29.3884  -43.1743  -57.8345 H         1 UNK         0.0848 
     89 H89        30.1099  -44.4851  -56.9018 H         1 UNK         0.0848 
     90 H90        30.6111  -44.2058  -58.5626 H         1 UNK         0.0848 
     91 H91        28.7642  -47.0129  -57.4488 H         1 UNK         0.3144 
     92 H92        30.0984  -49.2661  -59.7477 H         1 UNK         0.0727 
     93 H93        31.7217  -49.9271  -58.0238 H         1 UNK         0.0790 
     94 H94        31.5248  -48.3779  -57.1906 H         1 UNK         0.0790 
     95 H95        32.2528  -48.4456  -58.7913 H         1 UNK         0.0790 
     96 H96        29.2529  -49.2932  -56.9290 H         1 UNK         0.3215 
     97 H97        25.9809  -50.5376  -57.9040 H         1 UNK         0.0863 
     98 H98        27.7591  -52.2057  -57.2723 H         1 UNK         0.0808 
     99 H99        28.2111  -51.1857  -55.9115 H         1 UNK         0.0808 
    100 H100       26.6084  -51.9008  -55.9804 H         1 UNK         0.0808 
    101 H101       27.2477  -48.6308  -55.9853 H         1 UNK         0.3118 
    102 H102       24.8627  -46.7988  -55.6520 H         1 UNK         0.0546 
    103 H103       22.8972  -47.9272  -54.7370 H         1 UNK         0.0828 
    104 H104       23.6951  -47.0409  -53.4505 H         1 UNK         0.0828 
    105 H105       23.8685  -48.7931  -53.5593 H         1 UNK         0.0828 
    106 H106       26.6800  -46.4966  -54.4870 H         1 UNK         0.3005 
    107 H107       28.4544  -46.7577  -53.2203 H         1 UNK         0.1257 
    108 H108       27.3486  -48.1222  -50.7013 H         1 UNK         0.0775 
    109 H109       27.1048  -46.4629  -51.1711 H         1 UNK         0.0775 
    110 H110       28.2846  -44.6955  -49.8194 H         1 UNK         0.0840 
    111 H111       30.0115  -44.6458  -49.5680 H         1 UNK         0.0840 
    112 H112       29.6481  -48.8903  -51.9230 H         1 UNK         0.2987 
    113 H113       30.5891  -50.8521  -52.9389 H         1 UNK         0.0785 
    114 H114       30.4382  -51.5216  -55.3142 H         1 UNK         0.0798 
    115 H115       32.0967  -51.6195  -54.7484 H         1 UNK         0.0798 
    116 H116       31.5941  -50.2757  -55.7613 H         1 UNK         0.0798 
    117 H117       32.7110  -49.0618  -53.9358 H         1 UNK         0.3079 
    118 H118       33.1135  -47.1364  -51.6837 H         1 UNK         0.0794 
    119 H119       33.2529  -48.1381  -49.4434 H         1 UNK         0.0786 
    120 H120       34.8636  -47.6850  -49.9719 H         1 UNK         0.0786 
    121 H121       34.3633  -49.3757  -50.0102 H         1 UNK         0.0786 
    122 H122       34.7457  -47.3992  -53.1365 H         1 UNK         0.3032 
    123 H123       37.2352  -48.7849  -53.6672 H         1 UNK         0.1094 
    124 H124       37.2876  -50.3163  -55.6602 H         1 UNK         0.0794 
    125 H125       37.0302  -51.1937  -54.1626 H         1 UNK         0.0794 
    126 H126       35.6772  -50.9031  -55.2454 H         1 UNK         0.0794 
    127 H127       36.5290  -47.3296  -55.2190 H         1 UNK         0.3016 
@<TRIPOS>BOND
     1    1    2 1    
     2    1   67 1    
     3    1   68 1    
     4    1   69 1    
     5    2    3 2    
     6    2    4 am   BACKBONE|DICT|INTERRES
     7    4    5 1    
     8    4   70 1    
     9    5    6 1    
    10    5   65 1    
    11    5   71 1    
    12    6    7 1    
    13    6   72 1    
    14    6   73 1    
    15    7    8 1    
    16    8    9 1    
    17    8   74 1    
    18    8   75 1    
    19    9   10 ar   
    20    9   14 ar   
    21   10   11 ar   
    22   10   76 1    
    23   11   12 ar   
    24   11   48 1    
    25   12   13 ar   
    26   12   77 1    
    27   13   14 ar   
    28   13   15 1    
    29   14   78 1    
    30   15   16 1    
    31   15   79 1    
    32   15   80 1    
    33   16   17 1    
    34   17   18 1    
    35   17   81 1    
    36   17   82 1    
    37   18   19 1    
    38   18   22 1    
    39   18   83 1    
    40   19   20 am   BACKBONE|DICT|INTERRES
    41   19   21 2    
    42   20   84 1    
    43   20   85 1    
    44   22   23 am   BACKBONE|DICT|INTERRES
    45   22   86 1    
    46   23   24 2    
    47   23   25 1    
    48   25   26 1    
    49   25   27 1    
    50   25   87 1    
    51   26   88 1    
    52   26   89 1    
    53   26   90 1    
    54   27   28 am   BACKBONE|DICT|INTERRES
    55   27   91 1    
    56   28   29 2    
    57   28   30 1    
    58   30   31 1    
    59   30   32 1    
    60   30   92 1    
    61   31   93 1    
    62   31   94 1    
    63   31   95 1    
    64   32   33 am   BACKBONE|DICT|INTERRES
    65   32   96 1    
    66   33   34 2    
    67   33   35 1    
    68   35   36 1    
    69   35   37 1    
    70   35   97 1    
    71   36   98 1    
    72   36   99 1    
    73   36  100 1    
    74   37   38 am   BACKBONE|DICT|INTERRES
    75   37  101 1    
    76   38   39 2    
    77   38   40 1    
    78   40   41 1    
    79   40   42 1    
    80   40  102 1    
    81   41  103 1    
    82   41  104 1    
    83   41  105 1    
    84   42   43 am   BACKBONE|DICT|INTERRES
    85   42  106 1    
    86   43   44 2    
    87   43   45 1    
    88   45   46 1    
    89   45   49 1    
    90   45  107 1    
    91   46   47 1    
    92   46  108 1    
    93   46  109 1    
    94   47   48 1    
    95   48  110 1    
    96   48  111 1    
    97   49   50 am   BACKBONE|DICT|INTERRES
    98   49  112 1    
    99   50   51 2    
   100   50   52 1    
   101   52   53 1    
   102   52   54 1    
   103   52  113 1    
   104   53  114 1    
   105   53  115 1    
   106   53  116 1    
   107   54   55 am   BACKBONE|DICT|INTERRES
   108   54  117 1    
   109   55   56 2    
   110   55   57 1    
   111   57   58 1    
   112   57   59 1    
   113   57  118 1    
   114   58  119 1    
   115   58  120 1    
   116   58  121 1    
   117   59   60 am   BACKBONE|DICT|INTERRES
   118   59  122 1    
   119   60   61 2    
   120   60   62 1    
   121   62   63 1    
   122   62   64 1    
   123   62  123 1    
   124   63  124 1    
   125   63  125 1    
   126   63  126 1    
   127   64   65 am   BACKBONE|DICT|INTERRES
   128   64  127 1    
   129   65   66 2    
@<TRIPOS>SUBSTRUCTURE
     1 UNK         1 GROUP             0       ****    0 ROOT    
