@<TRIPOS>MOLECULE
3R134
127   129    1
SMALL
USER_CHARGES


@<TRIPOS>ATOM
      1 CA         38.7961  -48.6152  -56.2368 C.3       0 UNK        -0.1968 
      2 C          37.2854  -48.5629  -56.0616 C.2       0 UNK         0.4852 
      3 O          36.5545  -49.1005  -56.8952 O.2       0 UNK        -0.5359 
      4 N          36.8118  -47.9157  -54.9885 N.am      1 UNK        -0.4300 
      5 CA         35.3967  -47.8176  -54.6275 C.3       1 UNK         0.0863 
      6 C6         35.1378  -46.6049  -53.6944 C.3       11 UNK        -0.0953 
      7 S7         33.4364  -45.9692  -53.8409 S.3       11 UNK        -0.2369 
      8 C8         33.7034  -44.5568  -54.9560 C.3       11 UNK         0.0226 
      9 C9         32.3952  -43.8446  -55.2551 C.ar      11 UNK        -0.0699 
     10 C10        31.9256  -42.8496  -54.3945 C.ar      11 UNK        -0.0804 
     11 C11        30.6980  -42.2239  -54.6347 C.ar      11 UNK        -0.0871 
     12 C12        29.9606  -42.5667  -55.7741 C.ar      11 UNK        -0.1008 
     13 C13        30.4222  -43.5635  -56.6400 C.ar      11 UNK        -0.0735 
     14 C14        31.6409  -44.1961  -56.3772 C.ar      11 UNK        -0.0945 
     15 C15        29.5955  -43.9858  -57.8434 C.3       11 UNK         0.0169 
     16 S16        28.3398  -45.2150  -57.3698 S.3       11 UNK        -0.2669 
     17 C17        26.8181  -44.2033  -57.4298 C.3       11 UNK        -0.0850 
     18 CA         25.5276  -44.9959  -57.0832 C.3       10 UNK         0.0855 
     19 C          24.2669  -44.0876  -57.1708 C.2       10 UNK         0.5543 
     20 N          23.2674  -44.4117  -57.9820 N.am      10 UNK        -0.7343 
     21 O          24.1940  -43.0691  -56.4882 O.2       10 UNK        -0.5027 
     22 N          25.4426  -46.2495  -57.8465 N.am      10 UNK        -0.4495 
     23 C          24.7796  -47.3510  -57.4817 C.2       10 UNK         0.4903 
     24 O          24.0534  -47.4170  -56.4904 O.2       10 UNK        -0.4860 
     25 CA         24.9985  -48.6153  -58.3348 C.3       9 UNK         0.0227 
     26 CB         23.9669  -48.7090  -59.4761 C.3       9 UNK        -0.1964 
     27 N          26.3807  -48.7781  -58.8183 N.am      9 UNK        -0.4231 
     28 C          27.0455  -48.0542  -59.7329 C.2       9 UNK         0.5014 
     29 O          26.5447  -47.1236  -60.3662 O.2       9 UNK        -0.5270 
     30 CA         28.5402  -48.3698  -59.8841 C.3       8 UNK         0.0284 
     31 CB         29.2724  -47.3894  -60.8206 C.3       8 UNK        -0.1977 
     32 N          29.1553  -48.3171  -58.5600 N.am      8 UNK        -0.4342 
     33 C          29.8931  -49.2826  -58.0033 C.2       8 UNK         0.5039 
     34 O          30.2139  -50.3243  -58.5761 O.2       8 UNK        -0.5547 
     35 CA         30.3371  -49.0544  -56.5483 C.3       7 UNK         0.0281 
     36 CB         31.6953  -48.3356  -56.5183 C.3       7 UNK        -0.1963 
     37 N          29.3817  -48.2956  -55.7347 N.am      7 UNK        -0.4444 
     38 C          28.1199  -48.6576  -55.4531 C.2       7 UNK         0.5104 
     39 O          27.5769  -49.6542  -55.9309 O.2       7 UNK        -0.5100 
     40 CA         27.3298  -47.7648  -54.4789 C.3       6 UNK         0.0396 
     41 CB         26.5784  -48.5798  -53.4116 C.3       6 UNK        -0.1801 
     42 N          28.1866  -46.7723  -53.8279 N.am      6 UNK        -0.4747 
     43 C          27.8289  -45.5127  -53.5449 C.2       6 UNK         0.5012 
     44 O          26.6912  -45.0705  -53.7085 O.2       6 UNK        -0.5003 
     45 CA         28.9463  -44.5944  -53.0096 C.3       5 UNK         0.0782 
     46 C46        28.4306  -43.2265  -52.4796 C.3       11 UNK        -0.0868 
     47 S47        29.7720  -42.0707  -52.0253 S.3       11 UNK        -0.2515 
     48 C48        30.1351  -41.2444  -53.6147 C.3       11 UNK         0.0199 
     49 N          29.8731  -45.2871  -52.1110 N.am      5 UNK        -0.4607 
     50 C          29.5809  -45.9048  -50.9621 C.2       4 UNK         0.5031 
     51 O          28.4672  -45.9160  -50.4352 O.2       4 UNK        -0.5119 
     52 CA         30.7444  -46.6846  -50.3246 C.3       4 UNK         0.0263 
     53 CB         30.7145  -46.5887  -48.7887 C.3       4 UNK        -0.1967 
     54 N          30.7756  -48.0995  -50.7157 N.am      4 UNK        -0.4237 
     55 C          30.8341  -48.5847  -51.9643 C.2       3 UNK         0.4908 
     56 O          30.7697  -47.9022  -52.9904 O.2       3 UNK        -0.5102 
     57 CA         31.0089  -50.0975  -52.1045 C.3       3 UNK         0.0241 
     58 CB         29.6766  -50.7962  -52.4240 C.3       3 UNK        -0.1971 
     59 N          31.9670  -50.3137  -53.1809 N.am      3 UNK        -0.4139 
     60 C          32.7581  -51.3811  -53.3240 C.2       2 UNK         0.5016 
     61 O          32.7056  -52.3763  -52.5999 O.2       2 UNK        -0.5319 
     62 CA         33.7986  -51.3312  -54.4582 C.3       2 UNK         0.0286 
     63 CB         33.2600  -52.0336  -55.7153 C.3       2 UNK        -0.1963 
     64 N          34.2446  -49.9786  -54.8170 N.am      2 UNK        -0.4790 
     65 C          34.9393  -49.1582  -54.0157 C.2       1 UNK         0.5024 
     66 O          35.2626  -49.4436  -52.8611 O.2       1 UNK        -0.4888 
     67 H67        39.1369  -49.6501  -56.2434 H         1 UNK         0.0892 
     68 H68        39.3186  -48.0911  -55.4368 H         1 UNK         0.0892 
     69 H69        39.0797  -48.1568  -57.1838 H         1 UNK         0.0892 
     70 H70        37.4610  -47.5224  -54.3218 H         1 UNK         0.3107 
     71 H71        34.8389  -47.6495  -55.5521 H         1 UNK         0.0773 
     72 H72        35.8209  -45.7897  -53.9386 H         1 UNK         0.0680 
     73 H73        35.3392  -46.8417  -52.6480 H         1 UNK         0.0680 
     74 H74        34.4093  -43.8605  -54.5006 H         1 UNK         0.0650 
     75 H75        34.1637  -44.9076  -55.8811 H         1 UNK         0.0650 
     76 H76        32.4925  -42.5955  -53.5089 H         1 UNK         0.1397 
     77 H77        29.0060  -42.0949  -55.9628 H         1 UNK         0.1363 
     78 H78        31.9971  -44.9727  -57.0394 H         1 UNK         0.1355 
     79 H79        29.1293  -43.1140  -58.3048 H         1 UNK         0.0707 
     80 H80        30.2398  -44.4228  -58.6079 H         1 UNK         0.0707 
     81 H81        26.7342  -43.7710  -58.4288 H         1 UNK         0.1034 
     82 H82        26.9385  -43.3655  -56.7405 H         1 UNK         0.1034 
     83 H83        25.5987  -45.2768  -56.0331 H         1 UNK         0.0482 
     84 H84        23.3199  -45.2481  -58.5407 H         1 UNK         0.3460 
     85 H85        22.4542  -43.8183  -58.0303 H         1 UNK         0.3460 
     86 H86        25.9712  -46.2866  -58.7125 H         1 UNK         0.2989 
     87 H87        24.8273  -49.4656  -57.6725 H         1 UNK         0.0559 
     88 H88        24.0922  -49.6272  -60.0497 H         1 UNK         0.0848 
     89 H89        24.0388  -47.8690  -60.1673 H         1 UNK         0.0848 
     90 H90        22.9509  -48.7115  -59.0791 H         1 UNK         0.0848 
     91 H91        26.9194  -49.4658  -58.3056 H         1 UNK         0.3144 
     92 H92        28.6124  -49.3737  -60.3074 H         1 UNK         0.0727 
     93 H93        30.3271  -47.6479  -60.9155 H         1 UNK         0.0790 
     94 H94        29.2110  -46.3627  -60.4570 H         1 UNK         0.0790 
     95 H95        28.8419  -47.4096  -61.8225 H         1 UNK         0.0790 
     96 H96        28.9336  -47.5014  -58.0014 H         1 UNK         0.3215 
     97 H97        30.4494  -50.0347  -56.0813 H         1 UNK         0.0863 
     98 H98        32.0541  -48.2014  -55.4988 H         1 UNK         0.0808 
     99 H99        31.6364  -47.3499  -56.9803 H         1 UNK         0.0808 
    100 H100       32.4496  -48.9037  -57.0638 H         1 UNK         0.0808 
    101 H101       29.7359  -47.4531  -55.3065 H         1 UNK         0.3118 
    102 H102       26.5913  -47.2494  -55.0936 H         1 UNK         0.0546 
    103 H103       25.9301  -49.3288  -53.8681 H         1 UNK         0.0828 
    104 H104       25.9442  -47.9365  -52.8016 H         1 UNK         0.0828 
    105 H105       27.2650  -49.0987  -52.7441 H         1 UNK         0.0828 
    106 H106       29.1214  -47.0814  -53.5688 H         1 UNK         0.3005 
    107 H107       29.5369  -44.4059  -53.9004 H         1 UNK         0.1257 
    108 H108       27.8013  -43.3792  -51.6014 H         1 UNK         0.0775 
    109 H109       27.7990  -42.7372  -53.2234 H         1 UNK         0.0775 
    110 H110       29.2307  -40.7613  -53.9880 H         1 UNK         0.0840 
    111 H111       30.8612  -40.4484  -53.4439 H         1 UNK         0.0840 
    112 H112       30.8108  -45.3981  -52.4732 H         1 UNK         0.2987 
    113 H113       31.6798  -46.2334  -50.6634 H         1 UNK         0.0785 
    114 H114       29.8385  -47.0850  -48.3686 H         1 UNK         0.0798 
    115 H115       30.6850  -45.5475  -48.4642 H         1 UNK         0.0798 
    116 H116       31.6019  -47.0394  -48.3440 H         1 UNK         0.0798 
    117 H117       30.8005  -48.7593  -49.9518 H         1 UNK         0.3079 
    118 H118       31.4177  -50.4975  -51.1739 H         1 UNK         0.0794 
    119 H119       28.9347  -50.5990  -51.6494 H         1 UNK         0.0786 
    120 H120       29.8021  -51.8773  -52.4835 H         1 UNK         0.0786 
    121 H121       29.2641  -50.4586  -53.3746 H         1 UNK         0.0786 
    122 H122       32.0930  -49.5159  -53.7899 H         1 UNK         0.3032 
    123 H123       34.6739  -51.8838  -54.1089 H         1 UNK         0.1094 
    124 H124       32.4004  -51.5119  -56.1363 H         1 UNK         0.0794 
    125 H125       34.0240  -52.1016  -56.4900 H         1 UNK         0.0794 
    126 H126       32.9422  -53.0522  -55.4873 H         1 UNK         0.0794 
    127 H127       34.1016  -49.6972  -55.7765 H         1 UNK         0.3016 
@<TRIPOS>BOND
     1    1    2 1    
     2    1   67 1    
     3    1   68 1    
     4    1   69 1    
     5    2    3 2    
     6    2    4 am   BACKBONE|DICT|INTERRES
     7    4    5 1    
     8    4   70 1    
     9    5    6 1    
    10    5   65 1    
    11    5   71 1    
    12    6    7 1    
    13    6   72 1    
    14    6   73 1    
    15    7    8 1    
    16    8    9 1    
    17    8   74 1    
    18    8   75 1    
    19    9   10 ar   
    20    9   14 ar   
    21   10   11 ar   
    22   10   76 1    
    23   11   12 ar   
    24   11   48 1    
    25   12   13 ar   
    26   12   77 1    
    27   13   14 ar   
    28   13   15 1    
    29   14   78 1    
    30   15   16 1    
    31   15   79 1    
    32   15   80 1    
    33   16   17 1    
    34   17   18 1    
    35   17   81 1    
    36   17   82 1    
    37   18   19 1    
    38   18   22 1    
    39   18   83 1    
    40   19   20 am   BACKBONE|DICT|INTERRES
    41   19   21 2    
    42   20   84 1    
    43   20   85 1    
    44   22   23 am   BACKBONE|DICT|INTERRES
    45   22   86 1    
    46   23   24 2    
    47   23   25 1    
    48   25   26 1    
    49   25   27 1    
    50   25   87 1    
    51   26   88 1    
    52   26   89 1    
    53   26   90 1    
    54   27   28 am   BACKBONE|DICT|INTERRES
    55   27   91 1    
    56   28   29 2    
    57   28   30 1    
    58   30   31 1    
    59   30   32 1    
    60   30   92 1    
    61   31   93 1    
    62   31   94 1    
    63   31   95 1    
    64   32   33 am   BACKBONE|DICT|INTERRES
    65   32   96 1    
    66   33   34 2    
    67   33   35 1    
    68   35   36 1    
    69   35   37 1    
    70   35   97 1    
    71   36   98 1    
    72   36   99 1    
    73   36  100 1    
    74   37   38 am   BACKBONE|DICT|INTERRES
    75   37  101 1    
    76   38   39 2    
    77   38   40 1    
    78   40   41 1    
    79   40   42 1    
    80   40  102 1    
    81   41  103 1    
    82   41  104 1    
    83   41  105 1    
    84   42   43 am   BACKBONE|DICT|INTERRES
    85   42  106 1    
    86   43   44 2    
    87   43   45 1    
    88   45   46 1    
    89   45   49 1    
    90   45  107 1    
    91   46   47 1    
    92   46  108 1    
    93   46  109 1    
    94   47   48 1    
    95   48  110 1    
    96   48  111 1    
    97   49   50 am   BACKBONE|DICT|INTERRES
    98   49  112 1    
    99   50   51 2    
   100   50   52 1    
   101   52   53 1    
   102   52   54 1    
   103   52  113 1    
   104   53  114 1    
   105   53  115 1    
   106   53  116 1    
   107   54   55 am   BACKBONE|DICT|INTERRES
   108   54  117 1    
   109   55   56 2    
   110   55   57 1    
   111   57   58 1    
   112   57   59 1    
   113   57  118 1    
   114   58  119 1    
   115   58  120 1    
   116   58  121 1    
   117   59   60 am   BACKBONE|DICT|INTERRES
   118   59  122 1    
   119   60   61 2    
   120   60   62 1    
   121   62   63 1    
   122   62   64 1    
   123   62  123 1    
   124   63  124 1    
   125   63  125 1    
   126   63  126 1    
   127   64   65 am   BACKBONE|DICT|INTERRES
   128   64  127 1    
   129   65   66 2    
@<TRIPOS>SUBSTRUCTURE
     1 UNK         1 GROUP             0       ****    0 ROOT    
