@<TRIPOS>MOLECULE
3R134
127   129    1
SMALL
USER_CHARGES


@<TRIPOS>ATOM
      1 CA         39.9948  -45.1191  -53.0082 C.3       0 UNK        -0.1968 
      2 C          38.7539  -45.5508  -53.7760 C.2       0 UNK         0.4852 
      3 O          38.8690  -45.9952  -54.9190 O.2       0 UNK        -0.5359 
      4 N          37.5718  -45.4164  -53.1581 N.am      1 UNK        -0.4300 
      5 CA         36.2753  -45.8143  -53.7186 C.3       1 UNK         0.0863 
      6 C6         35.1100  -45.2330  -52.8790 C.3       11 UNK        -0.0953 
      7 S7         33.4826  -45.3643  -53.6936 S.3       11 UNK        -0.2369 
      8 C8         32.9774  -43.6217  -53.7989 C.3       11 UNK         0.0226 
      9 C9         31.4851  -43.5135  -54.0656 C.ar      11 UNK        -0.0699 
     10 C10        30.5900  -43.4235  -52.9951 C.ar      11 UNK        -0.0804 
     11 C11        29.2143  -43.3399  -53.2253 C.ar      11 UNK        -0.0871 
     12 C12        28.7367  -43.3496  -54.5378 C.ar      11 UNK        -0.1008 
     13 C13        29.6217  -43.4328  -55.6178 C.ar      11 UNK        -0.0735 
     14 C14        30.9965  -43.5141  -55.3757 C.ar      11 UNK        -0.0945 
     15 C15        29.0869  -43.4765  -57.0410 C.3       11 UNK         0.0169 
     16 S16        28.0136  -42.0521  -57.4153 S.3       11 UNK        -0.2669 
     17 C17        26.8090  -42.8668  -58.5104 C.3       11 UNK        -0.0850 
     18 CA         25.7775  -43.7318  -57.7114 C.3       10 UNK         0.0855 
     19 C          24.3341  -43.1422  -57.7045 C.2       10 UNK         0.5543 
     20 N          23.2883  -43.9596  -57.7232 N.am      10 UNK        -0.7343 
     21 O          24.1548  -41.9282  -57.6459 O.2       10 UNK        -0.5027 
     22 N          25.8719  -45.1630  -58.0462 N.am      10 UNK        -0.4495 
     23 C          25.6553  -45.6996  -59.2547 C.2       10 UNK         0.4903 
     24 O          25.3048  -45.0488  -60.2408 O.2       10 UNK        -0.4860 
     25 CA         25.8768  -47.2183  -59.3741 C.3       9 UNK         0.0227 
     26 CB         25.8969  -47.7146  -60.8354 C.3       9 UNK        -0.1964 
     27 N          27.0661  -47.6848  -58.6522 N.am      9 UNK        -0.4231 
     28 C          28.3487  -47.3359  -58.8488 C.2       9 UNK         0.5014 
     29 O          28.7158  -46.5161  -59.6915 O.2       9 UNK        -0.5270 
     30 CA         29.4156  -48.0122  -57.9596 C.3       8 UNK         0.0284 
     31 CB         30.0766  -46.9881  -57.0212 C.3       8 UNK        -0.1977 
     32 N          28.8944  -49.1162  -57.1506 N.am      8 UNK        -0.4342 
     33 C          28.5168  -50.3158  -57.6120 C.2       8 UNK         0.5039 
     34 O          28.6705  -50.6854  -58.7761 O.2       8 UNK        -0.5547 
     35 CA         27.7827  -51.2273  -56.6144 C.3       7 UNK         0.0281 
     36 CB         28.7770  -52.0486  -55.7780 C.3       7 UNK        -0.1963 
     37 N          26.8938  -50.4672  -55.7275 N.am      7 UNK        -0.4444 
     38 C          25.7470  -49.8902  -56.1149 C.2       7 UNK         0.5104 
     39 O          25.2957  -49.9682  -57.2565 O.2       7 UNK        -0.5100 
     40 CA         24.9919  -49.0561  -55.0664 C.3       6 UNK         0.0396 
     41 CB         24.0722  -49.9541  -54.2245 C.3       6 UNK        -0.1801 
     42 N          25.8899  -48.3097  -54.1829 N.am      6 UNK        -0.4747 
     43 C          26.5930  -47.2259  -54.5456 C.2       6 UNK         0.5012 
     44 O          26.5279  -46.7067  -55.6617 O.2       6 UNK        -0.5003 
     45 CA         27.5544  -46.6468  -53.4850 C.3       5 UNK         0.0782 
     46 C46        26.8111  -45.6129  -52.6030 C.3       11 UNK        -0.0868 
     47 S47        27.8810  -44.8589  -51.3299 S.3       11 UNK        -0.2515 
     48 C48        28.2482  -43.2309  -52.0555 C.3       11 UNK         0.0199 
     49 N          28.2244  -47.6822  -52.6817 N.am      5 UNK        -0.4607 
     50 C          28.9964  -48.6565  -53.1763 C.2       4 UNK         0.5031 
     51 O          29.1493  -48.8553  -54.3828 O.2       4 UNK        -0.5119 
     52 CA         29.6552  -49.6071  -52.1631 C.3       4 UNK         0.0263 
     53 CB         28.6598  -50.6968  -51.7311 C.3       4 UNK        -0.1967 
     54 N          30.8318  -50.2467  -52.7556 N.am      4 UNK        -0.4237 
     55 C          32.0020  -49.6285  -52.9566 C.2       3 UNK         0.4908 
     56 O          32.2848  -48.5237  -52.4877 O.2       3 UNK        -0.5102 
     57 CA         32.9886  -50.3550  -53.8859 C.3       3 UNK         0.0241 
     58 CB         32.6010  -50.1209  -55.3572 C.3       3 UNK        -0.1971 
     59 N          34.3610  -49.8917  -53.6939 N.am      3 UNK        -0.4139 
     60 C          35.1623  -50.2148  -52.6747 C.2       2 UNK         0.5016 
     61 O          34.8539  -51.0163  -51.7913 O.2       2 UNK        -0.5319 
     62 CA         36.5480  -49.5395  -52.6291 C.3       2 UNK         0.0286 
     63 CB         37.5258  -50.2103  -53.6140 C.3       2 UNK        -0.1963 
     64 N          36.5361  -48.0764  -52.8003 N.am      2 UNK        -0.4790 
     65 C          36.1708  -47.3479  -53.8689 C.2       1 UNK         0.5024 
     66 O          35.7802  -47.8301  -54.9336 O.2       1 UNK        -0.4888 
     67 H67        40.6735  -45.9631  -52.8880 H         1 UNK         0.0892 
     68 H68        40.5194  -44.3348  -53.5535 H         1 UNK         0.0892 
     69 H69        39.7506  -44.7369  -52.0172 H         1 UNK         0.0892 
     70 H70        37.5486  -45.0324  -52.2240 H         1 UNK         0.3107 
     71 H71        36.2145  -45.3838  -54.7208 H         1 UNK         0.0773 
     72 H72        35.0456  -45.7225  -51.9054 H         1 UNK         0.0680 
     73 H73        35.3076  -44.1812  -52.6669 H         1 UNK         0.0680 
     74 H74        33.5454  -43.1247  -54.5868 H         1 UNK         0.0650 
     75 H75        33.2206  -43.1090  -52.8670 H         1 UNK         0.0650 
     76 H76        30.9639  -43.4280  -51.9801 H         1 UNK         0.1397 
     77 H77        27.6731  -43.2914  -54.7232 H         1 UNK         0.1363 
     78 H78        31.6878  -43.5932  -56.2035 H         1 UNK         0.1355 
     79 H79        29.8985  -43.5070  -57.7695 H         1 UNK         0.0707 
     80 H80        28.5308  -44.4065  -57.1620 H         1 UNK         0.0707 
     81 H81        27.3689  -43.4659  -59.2305 H         1 UNK         0.1034 
     82 H82        26.3201  -42.0998  -59.1139 H         1 UNK         0.1034 
     83 H83        26.0513  -43.7091  -56.6562 H         1 UNK         0.0482 
     84 H84        23.4232  -44.9569  -57.7590 H         1 UNK         0.3460 
     85 H85        22.3574  -43.5737  -57.7068 H         1 UNK         0.3460 
     86 H86        26.1310  -45.7761  -57.2763 H         1 UNK         0.2989 
     87 H87        25.0229  -47.6856  -58.8820 H         1 UNK         0.0559 
     88 H88        26.7007  -47.2519  -61.4090 H         1 UNK         0.0848 
     89 H89        24.9597  -47.4804  -61.3417 H         1 UNK         0.0848 
     90 H90        26.0289  -48.7956  -60.8843 H         1 UNK         0.0848 
     91 H91        26.8812  -48.3574  -57.9206 H         1 UNK         0.3144 
     92 H92        30.1835  -48.4127  -58.6244 H         1 UNK         0.0727 
     93 H93        30.8740  -47.4431  -56.4334 H         1 UNK         0.0790 
     94 H94        29.3565  -46.5597  -56.3238 H         1 UNK         0.0790 
     95 H95        30.5197  -46.1660  -57.5844 H         1 UNK         0.0790 
     96 H96        28.8170  -48.9435  -56.1481 H         1 UNK         0.3215 
     97 H97        27.1715  -51.9237  -57.1930 H         1 UNK         0.0863 
     98 H98        29.4005  -51.4138  -55.1504 H         1 UNK         0.0808 
     99 H99        29.4427  -52.6257  -56.4213 H         1 UNK         0.0808 
    100 H100       28.2595  -52.7565  -55.1304 H         1 UNK         0.0808 
    101 H101       27.2221  -50.2984  -54.7883 H         1 UNK         0.3118 
    102 H102       24.3658  -48.3383  -55.6012 H         1 UNK         0.0546 
    103 H103       23.4732  -49.3668  -53.5285 H         1 UNK         0.0828 
    104 H104       24.6362  -50.6876  -53.6470 H         1 UNK         0.0828 
    105 H105       23.3779  -50.5052  -54.8606 H         1 UNK         0.0828 
    106 H106       26.0033  -48.6581  -53.2417 H         1 UNK         0.3005 
    107 H107       28.3408  -46.1242  -54.0335 H         1 UNK         0.1257 
    108 H108       25.9739  -46.0865  -52.0865 H         1 UNK         0.0775 
    109 H109       26.3731  -44.8250  -53.2187 H         1 UNK         0.0775 
    110 H110       27.3212  -42.7424  -52.3600 H         1 UNK         0.0840 
    111 H111       28.6831  -42.5938  -51.2838 H         1 UNK         0.0840 
    112 H112       28.1447  -47.5776  -51.6802 H         1 UNK         0.2987 
    113 H113       29.9631  -49.0333  -51.2863 H         1 UNK         0.0785 
    114 H114       29.1094  -51.3776  -51.0079 H         1 UNK         0.0798 
    115 H115       27.7801  -50.2608  -51.2561 H         1 UNK         0.0798 
    116 H116       28.3131  -51.2907  -52.5778 H         1 UNK         0.0798 
    117 H117       30.6783  -51.1406  -53.1974 H         1 UNK         0.3079 
    118 H118       32.9487  -51.4253  -53.6725 H         1 UNK         0.0794 
    119 H119       31.5821  -50.4512  -55.5604 H         1 UNK         0.0786 
    120 H120       33.2587  -50.6678  -56.0329 H         1 UNK         0.0786 
    121 H121       32.6550  -49.0635  -55.6207 H         1 UNK         0.0786 
    122 H122       34.7021  -49.1805  -54.3361 H         1 UNK         0.3032 
    123 H123       36.9361  -49.7127  -51.6236 H         1 UNK         0.1094 
    124 H124       37.2102  -50.0924  -54.6510 H         1 UNK         0.0794 
    125 H125       38.5289  -49.7941  -53.5208 H         1 UNK         0.0794 
    126 H126       37.5999  -51.2810  -53.4190 H         1 UNK         0.0794 
    127 H127       36.8237  -47.5593  -51.9809 H         1 UNK         0.3016 
@<TRIPOS>BOND
     1    1    2 1    
     2    1   67 1    
     3    1   68 1    
     4    1   69 1    
     5    2    3 2    
     6    2    4 am   BACKBONE|DICT|INTERRES
     7    4    5 1    
     8    4   70 1    
     9    5    6 1    
    10    5   65 1    
    11    5   71 1    
    12    6    7 1    
    13    6   72 1    
    14    6   73 1    
    15    7    8 1    
    16    8    9 1    
    17    8   74 1    
    18    8   75 1    
    19    9   10 ar   
    20    9   14 ar   
    21   10   11 ar   
    22   10   76 1    
    23   11   12 ar   
    24   11   48 1    
    25   12   13 ar   
    26   12   77 1    
    27   13   14 ar   
    28   13   15 1    
    29   14   78 1    
    30   15   16 1    
    31   15   79 1    
    32   15   80 1    
    33   16   17 1    
    34   17   18 1    
    35   17   81 1    
    36   17   82 1    
    37   18   19 1    
    38   18   22 1    
    39   18   83 1    
    40   19   20 am   BACKBONE|DICT|INTERRES
    41   19   21 2    
    42   20   84 1    
    43   20   85 1    
    44   22   23 am   BACKBONE|DICT|INTERRES
    45   22   86 1    
    46   23   24 2    
    47   23   25 1    
    48   25   26 1    
    49   25   27 1    
    50   25   87 1    
    51   26   88 1    
    52   26   89 1    
    53   26   90 1    
    54   27   28 am   BACKBONE|DICT|INTERRES
    55   27   91 1    
    56   28   29 2    
    57   28   30 1    
    58   30   31 1    
    59   30   32 1    
    60   30   92 1    
    61   31   93 1    
    62   31   94 1    
    63   31   95 1    
    64   32   33 am   BACKBONE|DICT|INTERRES
    65   32   96 1    
    66   33   34 2    
    67   33   35 1    
    68   35   36 1    
    69   35   37 1    
    70   35   97 1    
    71   36   98 1    
    72   36   99 1    
    73   36  100 1    
    74   37   38 am   BACKBONE|DICT|INTERRES
    75   37  101 1    
    76   38   39 2    
    77   38   40 1    
    78   40   41 1    
    79   40   42 1    
    80   40  102 1    
    81   41  103 1    
    82   41  104 1    
    83   41  105 1    
    84   42   43 am   BACKBONE|DICT|INTERRES
    85   42  106 1    
    86   43   44 2    
    87   43   45 1    
    88   45   46 1    
    89   45   49 1    
    90   45  107 1    
    91   46   47 1    
    92   46  108 1    
    93   46  109 1    
    94   47   48 1    
    95   48  110 1    
    96   48  111 1    
    97   49   50 am   BACKBONE|DICT|INTERRES
    98   49  112 1    
    99   50   51 2    
   100   50   52 1    
   101   52   53 1    
   102   52   54 1    
   103   52  113 1    
   104   53  114 1    
   105   53  115 1    
   106   53  116 1    
   107   54   55 am   BACKBONE|DICT|INTERRES
   108   54  117 1    
   109   55   56 2    
   110   55   57 1    
   111   57   58 1    
   112   57   59 1    
   113   57  118 1    
   114   58  119 1    
   115   58  120 1    
   116   58  121 1    
   117   59   60 am   BACKBONE|DICT|INTERRES
   118   59  122 1    
   119   60   61 2    
   120   60   62 1    
   121   62   63 1    
   122   62   64 1    
   123   62  123 1    
   124   63  124 1    
   125   63  125 1    
   126   63  126 1    
   127   64   65 am   BACKBONE|DICT|INTERRES
   128   64  127 1    
   129   65   66 2    
@<TRIPOS>SUBSTRUCTURE
     1 UNK         1 GROUP             0       ****    0 ROOT    
