@<TRIPOS>MOLECULE
3R134
127   129    1
SMALL
USER_CHARGES


@<TRIPOS>ATOM
      1 CA         32.9319  -49.5304  -57.6467 C.3       0 UNK        -0.1968 
      2 C          33.1104  -48.8206  -56.3139 C.2       0 UNK         0.4852 
      3 O          32.6573  -49.3328  -55.2912 O.2       0 UNK        -0.5359 
      4 N          33.7854  -47.6617  -56.3141 N.am      1 UNK        -0.4300 
      5 CA         34.0120  -46.7755  -55.1597 C.3       1 UNK         0.0863 
      6 C6         34.9221  -45.5730  -55.5222 C.3       11 UNK        -0.0953 
      7 S7         34.4122  -44.6857  -57.0319 S.3       11 UNK        -0.2369 
      8 C8         33.9353  -43.0600  -56.3695 C.3       11 UNK         0.0226 
      9 C9         32.5656  -43.0966  -55.7102 C.ar      11 UNK        -0.0699 
     10 C10        32.4281  -42.9245  -54.3303 C.ar      11 UNK        -0.0804 
     11 C11        31.1596  -42.9166  -53.7405 C.ar      11 UNK        -0.0871 
     12 C12        30.0257  -43.0963  -54.5418 C.ar      11 UNK        -0.1008 
     13 C13        30.1532  -43.2865  -55.9227 C.ar      11 UNK        -0.0735 
     14 C14        31.4267  -43.2785  -56.4964 C.ar      11 UNK        -0.0945 
     15 C15        28.9488  -43.5462  -56.8196 C.3       11 UNK         0.0169 
     16 S16        27.5064  -42.4892  -56.4804 S.3       11 UNK        -0.2669 
     17 C17        26.4298  -43.6381  -55.5523 C.3       11 UNK        -0.0850 
     18 CA         25.2465  -44.2147  -56.3755 C.3       10 UNK         0.0855 
     19 C          24.2138  -43.1171  -56.7738 C.2       10 UNK         0.5543 
     20 N          23.9738  -42.8618  -58.0545 N.am      10 UNK        -0.7343 
     21 O          23.6099  -42.4978  -55.9013 O.2       10 UNK        -0.5027 
     22 N          25.6928  -45.0937  -57.4756 N.am      10 UNK        -0.4495 
     23 C          24.9170  -46.0211  -58.0548 C.2       10 UNK         0.4903 
     24 O          23.7680  -46.2660  -57.6859 O.2       10 UNK        -0.4860 
     25 CA         25.4872  -46.8175  -59.2445 C.3       9 UNK         0.0227 
     26 CB         25.3060  -46.0469  -60.5674 C.3       9 UNK        -0.1964 
     27 N          26.8642  -47.3018  -59.0740 N.am      9 UNK        -0.4231 
     28 C          28.0092  -46.6085  -59.0335 C.2       9 UNK         0.5014 
     29 O          28.0580  -45.3853  -59.1562 O.2       9 UNK        -0.5270 
     30 CA         29.3042  -47.4149  -58.7813 C.3       8 UNK         0.0284 
     31 CB         30.5205  -46.5210  -58.4675 C.3       8 UNK        -0.1977 
     32 N          29.1365  -48.3866  -57.6961 N.am      8 UNK        -0.4342 
     33 C          28.5776  -49.5987  -57.8185 C.2       8 UNK         0.5039 
     34 O          28.2203  -50.0789  -58.8939 O.2       8 UNK        -0.5547 
     35 CA         28.2750  -50.3497  -56.5121 C.3       7 UNK         0.0281 
     36 CB         29.5175  -51.0975  -56.0037 C.3       7 UNK        -0.1963 
     37 N          27.7809  -49.4439  -55.4707 N.am      7 UNK        -0.4444 
     38 C          26.5955  -48.8087  -55.5189 C.2       7 UNK         0.5104 
     39 O          25.7646  -48.9923  -56.4073 O.2       7 UNK        -0.5100 
     40 CA         26.2884  -47.7805  -54.4186 C.3       6 UNK         0.0396 
     41 CB         25.4478  -48.4354  -53.3051 C.3       6 UNK        -0.1801 
     42 N          27.5279  -47.2192  -53.8853 N.am      6 UNK        -0.4747 
     43 C          27.6833  -46.2333  -52.9989 C.2       6 UNK         0.5012 
     44 O          26.7502  -45.5817  -52.5285 O.2       6 UNK        -0.5003 
     45 CA         29.1439  -45.9606  -52.5623 C.3       5 UNK         0.0782 
     46 C46        29.2481  -44.7769  -51.5679 C.3       11 UNK        -0.0868 
     47 S47        30.9737  -44.2476  -51.3069 S.3       11 UNK        -0.2515 
     48 C48        31.0218  -42.6846  -52.2418 C.3       11 UNK         0.0199 
     49 N          29.7655  -47.1791  -52.0208 N.am      5 UNK        -0.4607 
     50 C          30.1638  -48.2388  -52.7347 C.2       4 UNK         0.5031 
     51 O          30.0939  -48.2995  -53.9655 O.2       4 UNK        -0.5119 
     52 CA         30.5550  -49.4844  -51.9408 C.3       4 UNK         0.0263 
     53 CB         29.3018  -50.3636  -51.7366 C.3       4 UNK        -0.1967 
     54 N          31.5987  -50.2155  -52.6568 N.am      4 UNK        -0.4237 
     55 C          32.2736  -51.2637  -52.1646 C.2       3 UNK         0.4908 
     56 O          32.0769  -51.7503  -51.0501 O.2       3 UNK        -0.5102 
     57 CA         33.3831  -51.8512  -53.0447 C.3       3 UNK         0.0241 
     58 CB         32.8117  -52.5482  -54.2923 C.3       3 UNK        -0.1971 
     59 N          34.3289  -50.8054  -53.4300 N.am      3 UNK        -0.4139 
     60 C          35.3615  -50.4090  -52.6714 C.2       2 UNK         0.5016 
     61 O          35.6650  -50.9384  -51.6012 O.2       2 UNK        -0.5319 
     62 CA         36.2209  -49.2391  -53.1834 C.3       2 UNK         0.0286 
     63 CB         37.5445  -49.7614  -53.7664 C.3       2 UNK        -0.1963 
     64 N          35.5511  -48.4184  -54.1934 N.am      2 UNK        -0.4790 
     65 C          34.6089  -47.5001  -53.9338 C.2       1 UNK         0.5024 
     66 O          34.2118  -47.2248  -52.8014 O.2       1 UNK        -0.4888 
     67 H67        33.3801  -50.5226  -57.6040 H         1 UNK         0.0892 
     68 H68        31.8718  -49.6464  -57.8694 H         1 UNK         0.0892 
     69 H69        33.3942  -48.9824  -58.4674 H         1 UNK         0.0892 
     70 H70        34.1315  -47.2964  -57.1902 H         1 UNK         0.3107 
     71 H71        33.0335  -46.3900  -54.8642 H         1 UNK         0.0773 
     72 H72        34.9647  -44.8711  -54.6871 H         1 UNK         0.0680 
     73 H73        35.9494  -45.9052  -55.6853 H         1 UNK         0.0680 
     74 H74        33.9112  -42.3437  -57.1918 H         1 UNK         0.0650 
     75 H75        34.7001  -42.7022  -55.6784 H         1 UNK         0.0650 
     76 H76        33.3070  -42.7821  -53.7163 H         1 UNK         0.1397 
     77 H77        29.0437  -43.0895  -54.0913 H         1 UNK         0.1363 
     78 H78        31.5390  -43.4239  -57.5625 H         1 UNK         0.1355 
     79 H79        28.6739  -44.5965  -56.7315 H         1 UNK         0.0707 
     80 H80        29.2237  -43.3880  -57.8636 H         1 UNK         0.0707 
     81 H81        27.0256  -44.4568  -55.1527 H         1 UNK         0.1034 
     82 H82        26.0520  -43.1115  -54.6737 H         1 UNK         0.1034 
     83 H83        24.7003  -44.8584  -55.6831 H         1 UNK         0.0482 
     84 H84        23.3002  -42.1539  -58.3010 H         1 UNK         0.3460 
     85 H85        24.4717  -43.3605  -58.7734 H         1 UNK         0.3460 
     86 H86        26.6072  -44.9129  -57.8783 H         1 UNK         0.2989 
     87 H87        24.8838  -47.7237  -59.3190 H         1 UNK         0.0559 
     88 H88        24.2565  -45.7979  -60.7302 H         1 UNK         0.0848 
     89 H89        25.6327  -46.6415  -61.4204 H         1 UNK         0.0848 
     90 H90        25.8641  -45.1104  -60.5787 H         1 UNK         0.0848 
     91 H91        26.9473  -48.3042  -58.9440 H         1 UNK         0.3144 
     92 H92        29.5219  -47.9492  -59.7085 H         1 UNK         0.0727 
     93 H93        30.4226  -46.0220  -57.5040 H         1 UNK         0.0790 
     94 H94        30.6544  -45.7489  -59.2265 H         1 UNK         0.0790 
     95 H95        31.4410  -47.1024  -58.4444 H         1 UNK         0.0790 
     96 H96        29.3800  -48.0724  -56.7675 H         1 UNK         0.3215 
     97 H97        27.4955  -51.0853  -56.7229 H         1 UNK         0.0863 
     98 H98        29.2877  -51.7006  -55.1253 H         1 UNK         0.0808 
     99 H99        30.3186  -50.4102  -55.7348 H         1 UNK         0.0808 
    100 H100       29.9087  -51.7721  -56.7664 H         1 UNK         0.0808 
    101 H101       28.4212  -49.2649  -54.7081 H         1 UNK         0.3118 
    102 H102       25.7138  -46.9708  -54.8714 H         1 UNK         0.0546 
    103 H103       26.0111  -49.2043  -52.7752 H         1 UNK         0.0828 
    104 H104       24.5556  -48.9091  -53.7172 H         1 UNK         0.0828 
    105 H105       25.1076  -47.7042  -52.5723 H         1 UNK         0.0828 
    106 H106       28.3905  -47.6538  -54.2006 H         1 UNK         0.3005 
    107 H107       29.6867  -45.6833  -53.4690 H         1 UNK         0.1257 
    108 H108       28.6658  -43.9206  -51.9115 H         1 UNK         0.0775 
    109 H109       28.8221  -45.0521  -50.6014 H         1 UNK         0.0775 
    110 H110       30.1336  -42.0884  -52.0274 H         1 UNK         0.0840 
    111 H111       31.8660  -42.0943  -51.8818 H         1 UNK         0.0840 
    112 H112       29.8187  -47.2264  -51.0136 H         1 UNK         0.2987 
    113 H113       30.9517  -49.1754  -50.9715 H         1 UNK         0.0785 
    114 H114       28.4881  -49.7934  -51.2859 H         1 UNK         0.0798 
    115 H115       29.4993  -51.2054  -51.0737 H         1 UNK         0.0798 
    116 H116       28.9339  -50.7644  -52.6818 H         1 UNK         0.0798 
    117 H117       31.8303  -49.8506  -53.5809 H         1 UNK         0.3079 
    118 H118       33.9083  -52.6103  -52.4604 H         1 UNK         0.0794 
    119 H119       33.6045  -52.9979  -54.8900 H         1 UNK         0.0786 
    120 H120       32.2591  -51.8640  -54.9348 H         1 UNK         0.0786 
    121 H121       32.1266  -53.3481  -54.0085 H         1 UNK         0.0786 
    122 H122       34.0824  -50.2580  -54.2478 H         1 UNK         0.3032 
    123 H123       36.4520  -48.6084  -52.3215 H         1 UNK         0.1094 
    124 H124       37.3801  -50.3988  -54.6361 H         1 UNK         0.0794 
    125 H125       38.1971  -48.9416  -54.0676 H         1 UNK         0.0794 
    126 H126       38.0901  -50.3519  -53.0288 H         1 UNK         0.0794 
    127 H127       35.8090  -48.5784  -55.1569 H         1 UNK         0.3016 
@<TRIPOS>BOND
     1    1    2 1    
     2    1   67 1    
     3    1   68 1    
     4    1   69 1    
     5    2    3 2    
     6    2    4 am   BACKBONE|DICT|INTERRES
     7    4    5 1    
     8    4   70 1    
     9    5    6 1    
    10    5   65 1    
    11    5   71 1    
    12    6    7 1    
    13    6   72 1    
    14    6   73 1    
    15    7    8 1    
    16    8    9 1    
    17    8   74 1    
    18    8   75 1    
    19    9   10 ar   
    20    9   14 ar   
    21   10   11 ar   
    22   10   76 1    
    23   11   12 ar   
    24   11   48 1    
    25   12   13 ar   
    26   12   77 1    
    27   13   14 ar   
    28   13   15 1    
    29   14   78 1    
    30   15   16 1    
    31   15   79 1    
    32   15   80 1    
    33   16   17 1    
    34   17   18 1    
    35   17   81 1    
    36   17   82 1    
    37   18   19 1    
    38   18   22 1    
    39   18   83 1    
    40   19   20 am   BACKBONE|DICT|INTERRES
    41   19   21 2    
    42   20   84 1    
    43   20   85 1    
    44   22   23 am   BACKBONE|DICT|INTERRES
    45   22   86 1    
    46   23   24 2    
    47   23   25 1    
    48   25   26 1    
    49   25   27 1    
    50   25   87 1    
    51   26   88 1    
    52   26   89 1    
    53   26   90 1    
    54   27   28 am   BACKBONE|DICT|INTERRES
    55   27   91 1    
    56   28   29 2    
    57   28   30 1    
    58   30   31 1    
    59   30   32 1    
    60   30   92 1    
    61   31   93 1    
    62   31   94 1    
    63   31   95 1    
    64   32   33 am   BACKBONE|DICT|INTERRES
    65   32   96 1    
    66   33   34 2    
    67   33   35 1    
    68   35   36 1    
    69   35   37 1    
    70   35   97 1    
    71   36   98 1    
    72   36   99 1    
    73   36  100 1    
    74   37   38 am   BACKBONE|DICT|INTERRES
    75   37  101 1    
    76   38   39 2    
    77   38   40 1    
    78   40   41 1    
    79   40   42 1    
    80   40  102 1    
    81   41  103 1    
    82   41  104 1    
    83   41  105 1    
    84   42   43 am   BACKBONE|DICT|INTERRES
    85   42  106 1    
    86   43   44 2    
    87   43   45 1    
    88   45   46 1    
    89   45   49 1    
    90   45  107 1    
    91   46   47 1    
    92   46  108 1    
    93   46  109 1    
    94   47   48 1    
    95   48  110 1    
    96   48  111 1    
    97   49   50 am   BACKBONE|DICT|INTERRES
    98   49  112 1    
    99   50   51 2    
   100   50   52 1    
   101   52   53 1    
   102   52   54 1    
   103   52  113 1    
   104   53  114 1    
   105   53  115 1    
   106   53  116 1    
   107   54   55 am   BACKBONE|DICT|INTERRES
   108   54  117 1    
   109   55   56 2    
   110   55   57 1    
   111   57   58 1    
   112   57   59 1    
   113   57  118 1    
   114   58  119 1    
   115   58  120 1    
   116   58  121 1    
   117   59   60 am   BACKBONE|DICT|INTERRES
   118   59  122 1    
   119   60   61 2    
   120   60   62 1    
   121   62   63 1    
   122   62   64 1    
   123   62  123 1    
   124   63  124 1    
   125   63  125 1    
   126   63  126 1    
   127   64   65 am   BACKBONE|DICT|INTERRES
   128   64  127 1    
   129   65   66 2    
@<TRIPOS>SUBSTRUCTURE
     1 UNK         1 GROUP             0       ****    0 ROOT    
