@<TRIPOS>MOLECULE
3R134
127   129    1
SMALL
USER_CHARGES


@<TRIPOS>ATOM
      1 CA         33.6113  -42.4241  -52.6048 C.3       0 UNK        -0.1968 
      2 C          34.7389  -43.4134  -52.8627 C.2       0 UNK         0.4852 
      3 O          35.8695  -43.1812  -52.4309 O.2       0 UNK        -0.5359 
      4 N          34.4393  -44.5044  -53.5769 N.am      1 UNK        -0.4300 
      5 CA         35.3711  -45.5851  -53.9146 C.3       1 UNK         0.0863 
      6 C6         34.7909  -46.5491  -54.9850 C.3       11 UNK        -0.0953 
      7 S7         34.0724  -45.7304  -56.4462 S.3       11 UNK        -0.2369 
      8 C8         32.3478  -46.3103  -56.3609 C.3       11 UNK         0.0226 
      9 C9         31.4907  -45.4266  -55.4657 C.ar      11 UNK        -0.0699 
     10 C10        31.4742  -45.6075  -54.0781 C.ar      11 UNK        -0.0804 
     11 C11        30.6563  -44.8114  -53.2675 C.ar      11 UNK        -0.0871 
     12 C12        29.8463  -43.8365  -53.8576 C.ar      11 UNK        -0.1008 
     13 C13        29.8491  -43.6526  -55.2420 C.ar      11 UNK        -0.0735 
     14 C14        30.6832  -44.4403  -56.0384 C.ar      11 UNK        -0.0945 
     15 C15        28.9377  -42.6165  -55.8794 C.3       11 UNK         0.0169 
     16 S16        27.2695  -43.2956  -56.1292 S.3       11 UNK        -0.2669 
     17 C17        26.4925  -41.9428  -57.0710 C.3       11 UNK        -0.0850 
     18 CA         25.1163  -42.3394  -57.6687 C.3       10 UNK         0.0855 
     19 C          24.4349  -41.1020  -58.3257 C.2       10 UNK         0.5543 
     20 N          24.2365  -41.0674  -59.6380 N.am      10 UNK        -0.7343 
     21 O          24.0791  -40.1561  -57.6271 O.2       10 UNK        -0.5027 
     22 N          25.2152  -43.5309  -58.5325 N.am      10 UNK        -0.4495 
     23 C          24.1768  -44.2757  -58.9367 C.2       10 UNK         0.4903 
     24 O          23.0084  -44.0567  -58.6156 O.2       10 UNK        -0.4860 
     25 CA         24.4846  -45.4620  -59.8678 C.3       9 UNK         0.0227 
     26 CB         24.3480  -45.0350  -61.3387 C.3       9 UNK        -0.1964 
     27 N          25.8135  -46.0437  -59.6524 N.am      9 UNK        -0.4231 
     28 C          26.1329  -46.8371  -58.6213 C.2       9 UNK         0.5014 
     29 O          25.3403  -47.1674  -57.7359 O.2       9 UNK        -0.5270 
     30 CA         27.5888  -47.3234  -58.5742 C.3       8 UNK         0.0284 
     31 CB         28.4814  -46.2990  -57.8596 C.3       8 UNK        -0.1977 
     32 N          27.6832  -48.6003  -57.8683 N.am      8 UNK        -0.4342 
     33 C          27.6722  -49.8003  -58.4649 C.2       8 UNK         0.5039 
     34 O          27.6076  -49.9512  -59.6863 O.2       8 UNK        -0.5547 
     35 CA         27.7704  -51.0521  -57.5717 C.3       7 UNK         0.0281 
     36 CB         29.1831  -51.6546  -57.6491 C.3       7 UNK        -0.1963 
     37 N          27.4348  -50.7907  -56.1705 N.am      7 UNK        -0.4444 
     38 C          26.1816  -50.6470  -55.7128 C.2       7 UNK         0.5104 
     39 O          25.1814  -50.8031  -56.4138 O.2       7 UNK        -0.5100 
     40 CA         25.9967  -50.2658  -54.2296 C.3       6 UNK         0.0396 
     41 CB         25.5465  -51.4896  -53.4155 C.3       6 UNK        -0.1801 
     42 N          27.1859  -49.6867  -53.5977 N.am      6 UNK        -0.4747 
     43 C          27.7802  -48.5382  -53.9552 C.2       6 UNK         0.5012 
     44 O          27.3703  -47.8142  -54.8608 O.2       6 UNK        -0.5003 
     45 CA         29.0854  -48.1730  -53.2221 C.3       5 UNK         0.0782 
     46 C46        28.8200  -47.1560  -52.0836 C.3       11 UNK        -0.0868 
     47 S47        30.3581  -46.6975  -51.2083 S.3       11 UNK        -0.2515 
     48 C48        30.6434  -44.9818  -51.7522 C.3       11 UNK         0.0199 
     49 N          29.8232  -49.3487  -52.7410 N.am      5 UNK        -0.4607 
     50 C          30.3612  -50.2972  -53.5149 C.2       4 UNK         0.5031 
     51 O          30.2020  -50.3633  -54.7349 O.2       4 UNK        -0.5119 
     52 CA         31.2013  -51.3645  -52.7940 C.3       4 UNK         0.0263 
     53 CB         30.5620  -52.7537  -52.9576 C.3       4 UNK        -0.1967 
     54 N          32.5851  -51.4041  -53.2752 N.am      4 UNK        -0.4237 
     55 C          33.4506  -50.3808  -53.2331 C.2       3 UNK         0.4908 
     56 O          33.1776  -49.2646  -52.7858 O.2       3 UNK        -0.5102 
     57 CA         34.8486  -50.6551  -53.8177 C.3       3 UNK         0.0241 
     58 CB         34.7928  -50.6613  -55.3558 C.3       3 UNK        -0.1971 
     59 N          35.8248  -49.6500  -53.3932 N.am      3 UNK        -0.4139 
     60 C          36.3471  -49.5261  -52.1637 C.2       2 UNK         0.5016 
     61 O          36.1712  -50.3409  -51.2567 O.2       2 UNK        -0.5319 
     62 CA         37.2147  -48.2756  -51.9048 C.3       2 UNK         0.0286 
     63 CB         38.7072  -48.6120  -52.0570 C.3       2 UNK        -0.1963 
     64 N          36.8730  -47.1664  -52.8051 N.am      2 UNK        -0.4790 
     65 C          35.7688  -46.4161  -52.6755 C.2       1 UNK         0.5024 
     66 O          35.0412  -46.4415  -51.6798 O.2       1 UNK        -0.4888 
     67 H67        32.7235  -42.6566  -53.1928 H         1 UNK         0.0892 
     68 H68        33.3359  -42.4354  -51.5507 H         1 UNK         0.0892 
     69 H69        33.9295  -41.4147  -52.8641 H         1 UNK         0.0892 
     70 H70        33.4959  -44.6308  -53.9154 H         1 UNK         0.3107 
     71 H71        36.2740  -45.1214  -54.3177 H         1 UNK         0.0773 
     72 H72        35.5774  -47.2076  -55.3567 H         1 UNK         0.0680 
     73 H73        34.0438  -47.2101  -54.5422 H         1 UNK         0.0680 
     74 H74        32.3055  -47.3472  -56.0235 H         1 UNK         0.0650 
     75 H75        31.9439  -46.3147  -57.3742 H         1 UNK         0.0650 
     76 H76        32.0831  -46.3785  -53.6243 H         1 UNK         0.1397 
     77 H77        29.2009  -43.2235  -53.2430 H         1 UNK         0.1363 
     78 H78        30.6852  -44.3005  -57.1107 H         1 UNK         0.1355 
     79 H79        29.3489  -42.2923  -56.8368 H         1 UNK         0.0707 
     80 H80        28.8794  -41.7283  -55.2484 H         1 UNK         0.0707 
     81 H81        27.1707  -41.6256  -57.8656 H         1 UNK         0.1034 
     82 H82        26.3874  -41.0883  -56.3992 H         1 UNK         0.1034 
     83 H83        24.4717  -42.6158  -56.8319 H         1 UNK         0.0482 
     84 H84        24.5230  -41.8392  -60.2175 H         1 UNK         0.3460 
     85 H85        23.7920  -40.2621  -60.0501 H         1 UNK         0.3460 
     86 H86        26.1438  -43.7896  -58.8278 H         1 UNK         0.2989 
     87 H87        23.7372  -46.2343  -59.6727 H         1 UNK         0.0559 
     88 H88        25.0820  -44.2764  -61.6129 H         1 UNK         0.0848 
     89 H89        23.3593  -44.6164  -61.5330 H         1 UNK         0.0848 
     90 H90        24.4741  -45.8834  -62.0116 H         1 UNK         0.0848 
     91 H91        26.5228  -45.8270  -60.3385 H         1 UNK         0.3144 
     92 H92        27.9544  -47.4381  -59.5971 H         1 UNK         0.0727 
     93 H93        29.5179  -46.6334  -57.8327 H         1 UNK         0.0790 
     94 H94        28.1598  -46.1304  -56.8310 H         1 UNK         0.0790 
     95 H95        28.4643  -45.3344  -58.3680 H         1 UNK         0.0790 
     96 H96        27.6316  -48.5491  -56.8567 H         1 UNK         0.3215 
     97 H97        27.0674  -51.7900  -57.9646 H         1 UNK         0.0863 
     98 H98        29.2722  -52.5461  -57.0280 H         1 UNK         0.0808 
     99 H99        29.9438  -50.9428  -57.3266 H         1 UNK         0.0808 
    100 H100       29.4260  -51.9461  -58.6718 H         1 UNK         0.0808 
    101 H101       28.2135  -50.6458  -55.5368 H         1 UNK         0.3118 
    102 H102       25.2041  -49.5159  -54.1871 H         1 UNK         0.0546 
    103 H103       24.6410  -51.9281  -53.8374 H         1 UNK         0.0828 
    104 H104       25.3211  -51.2208  -52.3834 H         1 UNK         0.0828 
    105 H105       26.3094  -52.2690  -53.4028 H         1 UNK         0.0828 
    106 H106       27.6079  -50.2205  -52.8514 H         1 UNK         0.3005 
    107 H107       29.7173  -47.6899  -53.9692 H         1 UNK         0.1257 
    108 H108       28.1287  -47.5745  -51.3498 H         1 UNK         0.0775 
    109 H109       28.3396  -46.2565  -52.4739 H         1 UNK         0.0775 
    110 H110       29.8818  -44.3468  -51.2967 H         1 UNK         0.0840 
    111 H111       31.6010  -44.6450  -51.3529 H         1 UNK         0.0840 
    112 H112       30.0308  -49.3521  -51.7526 H         1 UNK         0.2987 
    113 H113       31.2343  -51.1291  -51.7281 H         1 UNK         0.0785 
    114 H114       29.5349  -52.7569  -52.5899 H         1 UNK         0.0798 
    115 H115       31.1075  -53.5120  -52.3956 H         1 UNK         0.0798 
    116 H116       30.5336  -53.0648  -54.0029 H         1 UNK         0.0798 
    117 H117       32.8853  -52.2718  -53.6951 H         1 UNK         0.3079 
    118 H118       35.1864  -51.6327  -53.4672 H         1 UNK         0.0794 
    119 H119       34.4397  -49.7078  -55.7514 H         1 UNK         0.0786 
    120 H120       34.1168  -51.4341  -55.7241 H         1 UNK         0.0786 
    121 H121       35.7734  -50.8619  -55.7883 H         1 UNK         0.0786 
    122 H122       36.0263  -48.9201  -54.0568 H         1 UNK         0.3032 
    123 H123       37.0368  -47.9615  -50.8734 H         1 UNK         0.1094 
    124 H124       38.9496  -48.9361  -53.0699 H         1 UNK         0.0794 
    125 H125       39.3339  -47.7522  -51.8192 H         1 UNK         0.0794 
    126 H126       38.9952  -49.4176  -51.3799 H         1 UNK         0.0794 
    127 H127       37.4444  -47.0616  -53.6324 H         1 UNK         0.3016 
@<TRIPOS>BOND
     1    1    2 1    
     2    1   67 1    
     3    1   68 1    
     4    1   69 1    
     5    2    3 2    
     6    2    4 am   BACKBONE|DICT|INTERRES
     7    4    5 1    
     8    4   70 1    
     9    5    6 1    
    10    5   65 1    
    11    5   71 1    
    12    6    7 1    
    13    6   72 1    
    14    6   73 1    
    15    7    8 1    
    16    8    9 1    
    17    8   74 1    
    18    8   75 1    
    19    9   10 ar   
    20    9   14 ar   
    21   10   11 ar   
    22   10   76 1    
    23   11   12 ar   
    24   11   48 1    
    25   12   13 ar   
    26   12   77 1    
    27   13   14 ar   
    28   13   15 1    
    29   14   78 1    
    30   15   16 1    
    31   15   79 1    
    32   15   80 1    
    33   16   17 1    
    34   17   18 1    
    35   17   81 1    
    36   17   82 1    
    37   18   19 1    
    38   18   22 1    
    39   18   83 1    
    40   19   20 am   BACKBONE|DICT|INTERRES
    41   19   21 2    
    42   20   84 1    
    43   20   85 1    
    44   22   23 am   BACKBONE|DICT|INTERRES
    45   22   86 1    
    46   23   24 2    
    47   23   25 1    
    48   25   26 1    
    49   25   27 1    
    50   25   87 1    
    51   26   88 1    
    52   26   89 1    
    53   26   90 1    
    54   27   28 am   BACKBONE|DICT|INTERRES
    55   27   91 1    
    56   28   29 2    
    57   28   30 1    
    58   30   31 1    
    59   30   32 1    
    60   30   92 1    
    61   31   93 1    
    62   31   94 1    
    63   31   95 1    
    64   32   33 am   BACKBONE|DICT|INTERRES
    65   32   96 1    
    66   33   34 2    
    67   33   35 1    
    68   35   36 1    
    69   35   37 1    
    70   35   97 1    
    71   36   98 1    
    72   36   99 1    
    73   36  100 1    
    74   37   38 am   BACKBONE|DICT|INTERRES
    75   37  101 1    
    76   38   39 2    
    77   38   40 1    
    78   40   41 1    
    79   40   42 1    
    80   40  102 1    
    81   41  103 1    
    82   41  104 1    
    83   41  105 1    
    84   42   43 am   BACKBONE|DICT|INTERRES
    85   42  106 1    
    86   43   44 2    
    87   43   45 1    
    88   45   46 1    
    89   45   49 1    
    90   45  107 1    
    91   46   47 1    
    92   46  108 1    
    93   46  109 1    
    94   47   48 1    
    95   48  110 1    
    96   48  111 1    
    97   49   50 am   BACKBONE|DICT|INTERRES
    98   49  112 1    
    99   50   51 2    
   100   50   52 1    
   101   52   53 1    
   102   52   54 1    
   103   52  113 1    
   104   53  114 1    
   105   53  115 1    
   106   53  116 1    
   107   54   55 am   BACKBONE|DICT|INTERRES
   108   54  117 1    
   109   55   56 2    
   110   55   57 1    
   111   57   58 1    
   112   57   59 1    
   113   57  118 1    
   114   58  119 1    
   115   58  120 1    
   116   58  121 1    
   117   59   60 am   BACKBONE|DICT|INTERRES
   118   59  122 1    
   119   60   61 2    
   120   60   62 1    
   121   62   63 1    
   122   62   64 1    
   123   62  123 1    
   124   63  124 1    
   125   63  125 1    
   126   63  126 1    
   127   64   65 am   BACKBONE|DICT|INTERRES
   128   64  127 1    
   129   65   66 2    
@<TRIPOS>SUBSTRUCTURE
     1 UNK         1 GROUP             0       ****    0 ROOT    
