@<TRIPOS>MOLECULE
3R134
127   129    1
SMALL
USER_CHARGES


@<TRIPOS>ATOM
      1 CA         36.9154  -43.8592  -54.9276 C.3       0 UNK        -0.1968 
      2 C          35.4584  -44.2853  -55.0288 C.2       0 UNK         0.4852 
      3 O          34.5694  -43.4926  -54.7152 O.2       0 UNK        -0.5359 
      4 N          35.2103  -45.5355  -55.4453 N.am      1 UNK        -0.4300 
      5 CA         33.9038  -46.1819  -55.6502 C.3       1 UNK         0.0863 
      6 C6         33.0118  -45.4422  -56.6838 C.3       11 UNK        -0.0953 
      7 S7         31.7812  -46.5370  -57.4724 S.3       11 UNK        -0.2369 
      8 C8         30.2374  -45.5866  -57.2964 C.3       11 UNK         0.0226 
      9 C9         29.7235  -45.5762  -55.8649 C.ar      11 UNK        -0.0699 
     10 C10        28.9878  -46.6573  -55.3719 C.ar      11 UNK        -0.0804 
     11 C11        28.5155  -46.6528  -54.0557 C.ar      11 UNK        -0.0871 
     12 C12        28.7471  -45.5355  -53.2460 C.ar      11 UNK        -0.1008 
     13 C13        29.4586  -44.4370  -53.7379 C.ar      11 UNK        -0.0735 
     14 C14        29.9597  -44.4731  -55.0417 C.ar      11 UNK        -0.0945 
     15 C15        29.6989  -43.2177  -52.8580 C.3       11 UNK         0.0169 
     16 S16        28.3032  -42.0442  -52.9016 S.3       11 UNK        -0.2669 
     17 C17        28.3916  -41.4053  -54.6144 C.3       11 UNK        -0.0850 
     18 CA         27.1653  -41.7745  -55.4960 C.3       10 UNK         0.0855 
     19 C          27.3843  -41.3072  -56.9663 C.2       10 UNK         0.5543 
     20 N          27.4141  -42.1923  -57.9570 N.am      10 UNK        -0.7343 
     21 O          27.5303  -40.1121  -57.2102 O.2       10 UNK        -0.5027 
     22 N          26.7764  -43.1857  -55.3583 N.am      10 UNK        -0.4495 
     23 C          25.5826  -43.6831  -55.6956 C.2       10 UNK         0.4903 
     24 O          24.6398  -43.0123  -56.1209 O.2       10 UNK        -0.4860 
     25 CA         25.4176  -45.1996  -55.5280 C.3       9 UNK         0.0227 
     26 CB         24.3452  -45.5290  -54.4772 C.3       9 UNK        -0.1964 
     27 N          25.1021  -45.8750  -56.7871 N.am      9 UNK        -0.4231 
     28 C          25.8553  -45.8463  -57.8954 C.2       9 UNK         0.5014 
     29 O          26.8881  -45.1831  -58.0240 O.2       9 UNK        -0.5270 
     30 CA         25.3610  -46.7090  -59.0695 C.3       8 UNK         0.0284 
     31 CB         24.8044  -45.8205  -60.1942 C.3       8 UNK        -0.1977 
     32 N          26.4156  -47.5737  -59.6085 N.am      8 UNK        -0.4342 
     33 C          27.0670  -48.5158  -58.9138 C.2       8 UNK         0.5039 
     34 O          26.8461  -48.7772  -57.7253 O.2       8 UNK        -0.5547 
     35 CA         28.1360  -49.3160  -59.6729 C.3       7 UNK         0.0281 
     36 CB         29.3471  -48.4373  -60.0427 C.3       7 UNK        -0.1963 
     37 N          28.5497  -50.4022  -58.7947 N.am      7 UNK        -0.4444 
     38 C          29.2960  -51.4714  -59.0864 C.2       7 UNK         0.5104 
     39 O          29.7272  -51.7225  -60.2130 O.2       7 UNK        -0.5100 
     40 CA         29.5994  -52.4148  -57.9013 C.3       6 UNK         0.0396 
     41 CB         30.8241  -53.3214  -58.1479 C.3       6 UNK        -0.1801 
     42 N          29.7112  -51.6958  -56.6208 N.am      6 UNK        -0.4747 
     43 C          30.6233  -50.7630  -56.2957 C.2       6 UNK         0.5012 
     44 O          31.5797  -50.4630  -57.0120 O.2       6 UNK        -0.5003 
     45 CA         30.4240  -49.9958  -54.9711 C.3       5 UNK         0.0782 
     46 C46        29.0524  -50.2268  -54.2791 C.3       11 UNK        -0.0868 
     47 S47        28.7938  -49.1309  -52.8387 S.3       11 UNK        -0.2515 
     48 C48        27.7138  -47.8301  -53.5199 C.3       11 UNK         0.0199 
     49 N          31.5664  -50.1711  -54.0769 N.am      5 UNK        -0.4607 
     50 C          32.0424  -51.3076  -53.5563 C.2       4 UNK         0.5031 
     51 O          31.5713  -52.4249  -53.7707 O.2       4 UNK        -0.5119 
     52 CA         33.2450  -51.1559  -52.6099 C.3       4 UNK         0.0263 
     53 CB         34.5377  -50.9044  -53.4037 C.3       4 UNK        -0.1967 
     54 N          33.0456  -50.0721  -51.6445 N.am      4 UNK        -0.4237 
     55 C          32.1768  -50.1033  -50.6258 C.2       3 UNK         0.4908 
     56 O          31.5122  -51.0970  -50.3295 O.2       3 UNK        -0.5102 
     57 CA         32.0023  -48.8199  -49.7907 C.3       3 UNK         0.0241 
     58 CB         33.0463  -48.7430  -48.6588 C.3       3 UNK        -0.1971 
     59 N          31.9516  -47.5758  -50.5753 N.am      3 UNK        -0.4139 
     60 C          32.9266  -46.9888  -51.2834 C.2       2 UNK         0.5016 
     61 O          34.0828  -47.4138  -51.3562 O.2       2 UNK        -0.5319 
     62 CA         32.5299  -45.7130  -52.0487 C.3       2 UNK         0.0286 
     63 CB         32.8594  -44.4652  -51.2143 C.3       2 UNK        -0.1963 
     64 N          33.1748  -45.5908  -53.3597 N.am      2 UNK        -0.4790 
     65 C          33.1502  -46.5040  -54.3397 C.2       1 UNK         0.5024 
     66 O          32.5835  -47.5901  -54.2339 O.2       1 UNK        -0.4888 
     67 H67        37.5965  -44.6543  -55.2304 H         1 UNK         0.0892 
     68 H68        37.0977  -42.9955  -55.5664 H         1 UNK         0.0892 
     69 H69        37.1539  -43.5806  -53.9015 H         1 UNK         0.0892 
     70 H70        36.0006  -46.1330  -55.6462 H         1 UNK         0.3107 
     71 H71        34.1609  -47.1502  -56.0838 H         1 UNK         0.0773 
     72 H72        33.6324  -45.0459  -57.4887 H         1 UNK         0.0680 
     73 H73        32.5287  -44.5752  -56.2337 H         1 UNK         0.0680 
     74 H74        29.4792  -46.0257  -57.9456 H         1 UNK         0.0650 
     75 H75        30.3908  -44.5696  -57.6605 H         1 UNK         0.0650 
     76 H76        28.7798  -47.4997  -56.0172 H         1 UNK         0.1397 
     77 H77        28.3657  -45.5154  -52.2341 H         1 UNK         0.1363 
     78 H78        30.5283  -43.6368  -55.4227 H         1 UNK         0.1355 
     79 H79        30.6153  -42.7053  -53.1553 H         1 UNK         0.0707 
     80 H80        29.8531  -43.5372  -51.8263 H         1 UNK         0.0707 
     81 H81        28.4807  -40.3190  -54.5525 H         1 UNK         0.1034 
     82 H82        29.3173  -41.7378  -55.0830 H         1 UNK         0.1034 
     83 H83        26.3244  -41.1866  -55.1228 H         1 UNK         0.0482 
     84 H84        27.5558  -41.8686  -58.9000 H         1 UNK         0.3460 
     85 H85        27.2767  -43.1822  -57.7812 H         1 UNK         0.3460 
     86 H86        27.4980  -43.8101  -55.0235 H         1 UNK         0.2989 
     87 H87        26.3608  -45.6123  -55.1783 H         1 UNK         0.0559 
     88 H88        24.5745  -45.0485  -53.5250 H         1 UNK         0.0848 
     89 H89        24.2864  -46.6014  -54.2902 H         1 UNK         0.0848 
     90 H90        23.3573  -45.1846  -54.7859 H         1 UNK         0.0848 
     91 H91        24.2583  -46.4288  -56.7963 H         1 UNK         0.3144 
     92 H92        24.5571  -47.3589  -58.7174 H         1 UNK         0.0727 
     93 H93        24.3918  -46.4176  -61.0077 H         1 UNK         0.0790 
     94 H94        25.5738  -45.1684  -60.6103 H         1 UNK         0.0790 
     95 H95        24.0022  -45.1804  -59.8242 H         1 UNK         0.0790 
     96 H96        26.6814  -47.4095  -60.5685 H         1 UNK         0.3215 
     97 H97        27.6852  -49.7357  -60.5744 H         1 UNK         0.0863 
     98 H98        30.0722  -48.9898  -60.6403 H         1 UNK         0.0808 
     99 H99        29.8612  -48.0787  -59.1518 H         1 UNK         0.0808 
    100 H100       29.0508  -47.5652  -60.6261 H         1 UNK         0.0808 
    101 H101       28.1801  -50.2954  -57.8565 H         1 UNK         0.3118 
    102 H102       28.7285  -53.0649  -57.8061 H         1 UNK         0.0546 
    103 H103       30.6619  -53.9689  -59.0103 H         1 UNK         0.0828 
    104 H104       31.0197  -53.9664  -57.2914 H         1 UNK         0.0828 
    105 H105       31.7267  -52.7427  -58.3454 H         1 UNK         0.0828 
    106 H106       28.9835  -51.8974  -55.9492 H         1 UNK         0.3005 
    107 H107       30.4672  -48.9464  -55.2608 H         1 UNK         0.1257 
    108 H108       28.9713  -51.2564  -53.9264 H         1 UNK         0.0775 
    109 H109       28.2327  -50.0774  -54.9839 H         1 UNK         0.0775 
    110 H110       27.0630  -48.2323  -54.2980 H         1 UNK         0.0840 
    111 H111       27.0461  -47.4886  -52.7275 H         1 UNK         0.0840 
    112 H112       32.0605  -49.3025  -53.8844 H         1 UNK         0.2987 
    113 H113       33.3586  -52.0912  -52.0574 H         1 UNK         0.0785 
    114 H114       34.4995  -49.9621  -53.9524 H         1 UNK         0.0798 
    115 H115       34.7094  -51.6994  -54.1307 H         1 UNK         0.0798 
    116 H116       35.4063  -50.8734  -52.7457 H         1 UNK         0.0798 
    117 H117       33.5609  -49.2075  -51.7899 H         1 UNK         0.3079 
    118 H118       31.0218  -48.8972  -49.3176 H         1 UNK         0.0794 
    119 H119       32.9870  -49.6232  -48.0172 H         1 UNK         0.0786 
    120 H120       32.8826  -47.8700  -48.0269 H         1 UNK         0.0786 
    121 H121       34.0657  -48.6933  -49.0424 H         1 UNK         0.0786 
    122 H122       31.0344  -47.1527  -50.6146 H         1 UNK         0.3032 
    123 H123       31.4549  -45.7449  -52.2298 H         1 UNK         0.1094 
    124 H124       32.5520  -43.5514  -51.7224 H         1 UNK         0.0794 
    125 H125       32.3463  -44.4894  -50.2519 H         1 UNK         0.0794 
    126 H126       33.9289  -44.3906  -51.0127 H         1 UNK         0.0794 
    127 H127       33.6638  -44.7230  -53.5597 H         1 UNK         0.3016 
@<TRIPOS>BOND
     1    1    2 1    
     2    1   67 1    
     3    1   68 1    
     4    1   69 1    
     5    2    3 2    
     6    2    4 am   BACKBONE|DICT|INTERRES
     7    4    5 1    
     8    4   70 1    
     9    5    6 1    
    10    5   65 1    
    11    5   71 1    
    12    6    7 1    
    13    6   72 1    
    14    6   73 1    
    15    7    8 1    
    16    8    9 1    
    17    8   74 1    
    18    8   75 1    
    19    9   10 ar   
    20    9   14 ar   
    21   10   11 ar   
    22   10   76 1    
    23   11   12 ar   
    24   11   48 1    
    25   12   13 ar   
    26   12   77 1    
    27   13   14 ar   
    28   13   15 1    
    29   14   78 1    
    30   15   16 1    
    31   15   79 1    
    32   15   80 1    
    33   16   17 1    
    34   17   18 1    
    35   17   81 1    
    36   17   82 1    
    37   18   19 1    
    38   18   22 1    
    39   18   83 1    
    40   19   20 am   BACKBONE|DICT|INTERRES
    41   19   21 2    
    42   20   84 1    
    43   20   85 1    
    44   22   23 am   BACKBONE|DICT|INTERRES
    45   22   86 1    
    46   23   24 2    
    47   23   25 1    
    48   25   26 1    
    49   25   27 1    
    50   25   87 1    
    51   26   88 1    
    52   26   89 1    
    53   26   90 1    
    54   27   28 am   BACKBONE|DICT|INTERRES
    55   27   91 1    
    56   28   29 2    
    57   28   30 1    
    58   30   31 1    
    59   30   32 1    
    60   30   92 1    
    61   31   93 1    
    62   31   94 1    
    63   31   95 1    
    64   32   33 am   BACKBONE|DICT|INTERRES
    65   32   96 1    
    66   33   34 2    
    67   33   35 1    
    68   35   36 1    
    69   35   37 1    
    70   35   97 1    
    71   36   98 1    
    72   36   99 1    
    73   36  100 1    
    74   37   38 am   BACKBONE|DICT|INTERRES
    75   37  101 1    
    76   38   39 2    
    77   38   40 1    
    78   40   41 1    
    79   40   42 1    
    80   40  102 1    
    81   41  103 1    
    82   41  104 1    
    83   41  105 1    
    84   42   43 am   BACKBONE|DICT|INTERRES
    85   42  106 1    
    86   43   44 2    
    87   43   45 1    
    88   45   46 1    
    89   45   49 1    
    90   45  107 1    
    91   46   47 1    
    92   46  108 1    
    93   46  109 1    
    94   47   48 1    
    95   48  110 1    
    96   48  111 1    
    97   49   50 am   BACKBONE|DICT|INTERRES
    98   49  112 1    
    99   50   51 2    
   100   50   52 1    
   101   52   53 1    
   102   52   54 1    
   103   52  113 1    
   104   53  114 1    
   105   53  115 1    
   106   53  116 1    
   107   54   55 am   BACKBONE|DICT|INTERRES
   108   54  117 1    
   109   55   56 2    
   110   55   57 1    
   111   57   58 1    
   112   57   59 1    
   113   57  118 1    
   114   58  119 1    
   115   58  120 1    
   116   58  121 1    
   117   59   60 am   BACKBONE|DICT|INTERRES
   118   59  122 1    
   119   60   61 2    
   120   60   62 1    
   121   62   63 1    
   122   62   64 1    
   123   62  123 1    
   124   63  124 1    
   125   63  125 1    
   126   63  126 1    
   127   64   65 am   BACKBONE|DICT|INTERRES
   128   64  127 1    
   129   65   66 2    
@<TRIPOS>SUBSTRUCTURE
     1 UNK         1 GROUP             0       ****    0 ROOT    
