@<TRIPOS>MOLECULE
3R134
127   129    1
SMALL
USER_CHARGES


@<TRIPOS>ATOM
      1 CA         32.7449  -41.9729  -51.0087 C.3       0 UNK        -0.1968 
      2 C          33.5538  -43.2590  -51.0851 C.2       0 UNK         0.4852 
      3 O          32.9617  -44.3370  -51.1593 O.2       0 UNK        -0.5359 
      4 N          34.8923  -43.1391  -51.0759 N.am      1 UNK        -0.4300 
      5 CA         35.9032  -44.2074  -51.1397 C.3       1 UNK         0.0863 
      6 C6         36.2825  -44.6256  -52.5966 C.3       11 UNK        -0.0953 
      7 S7         34.9549  -45.3597  -53.6195 S.3       11 UNK        -0.2369 
      8 C8         34.4642  -43.9371  -54.6346 C.3       11 UNK         0.0226 
      9 C9         33.1449  -44.1913  -55.3462 C.ar      11 UNK        -0.0699 
     10 C10        33.1139  -44.4349  -56.7246 C.ar      11 UNK        -0.0804 
     11 C11        31.8927  -44.6023  -57.3866 C.ar      11 UNK        -0.0871 
     12 C12        30.7059  -44.5201  -56.6559 C.ar      11 UNK        -0.1008 
     13 C13        30.7242  -44.3207  -55.2772 C.ar      11 UNK        -0.0735 
     14 C14        31.9466  -44.1498  -54.6249 C.ar      11 UNK        -0.0945 
     15 C15        29.4114  -44.3009  -54.5151 C.3       11 UNK         0.0169 
     16 S16        28.8277  -45.9986  -54.2389 S.3       11 UNK        -0.2669 
     17 C17        27.0623  -45.7305  -53.8706 C.3       11 UNK        -0.0850 
     18 CA         26.1573  -46.5242  -54.8510 C.3       10 UNK         0.0855 
     19 C          24.6748  -46.5871  -54.3944 C.2       10 UNK         0.5543 
     20 N          24.0047  -47.7064  -54.6318 N.am      10 UNK        -0.7343 
     21 O          24.1378  -45.6496  -53.8087 O.2       10 UNK        -0.5027 
     22 N          26.2956  -46.1135  -56.2568 N.am      10 UNK        -0.4495 
     23 C          25.8968  -44.9558  -56.8011 C.2       10 UNK         0.4903 
     24 O          25.4597  -44.0029  -56.1561 O.2       10 UNK        -0.4860 
     25 CA         25.9867  -44.8223  -58.3343 C.3       9 UNK         0.0227 
     26 CB         27.1555  -43.9138  -58.7488 C.3       9 UNK        -0.1964 
     27 N          26.0922  -46.0958  -59.0527 N.am      9 UNK        -0.4231 
     28 C          25.1148  -47.0052  -59.1669 C.2       9 UNK         0.5014 
     29 O          24.0021  -46.8841  -58.6532 O.2       9 UNK        -0.5270 
     30 CA         25.4210  -48.2571  -60.0005 C.3       8 UNK         0.0284 
     31 CB         26.5831  -48.0785  -60.9997 C.3       8 UNK        -0.1977 
     32 N          25.7365  -49.3599  -59.0969 N.am      8 UNK        -0.4342 
     33 C          25.0162  -50.4810  -58.9666 C.2       8 UNK         0.5039 
     34 O          23.9761  -50.6996  -59.5906 O.2       8 UNK        -0.5547 
     35 CA         25.5430  -51.5713  -58.0132 C.3       7 UNK         0.0281 
     36 CB         25.9529  -52.8255  -58.8050 C.3       7 UNK        -0.1963 
     37 N          26.6784  -51.1503  -57.1888 N.am      7 UNK        -0.4444 
     38 C          26.5795  -50.4297  -56.0654 C.2       7 UNK         0.5104 
     39 O          25.5190  -49.9957  -55.6145 O.2       7 UNK        -0.5100 
     40 CA         27.8994  -50.1294  -55.3331 C.3       6 UNK         0.0396 
     41 CB         28.3325  -51.3568  -54.5150 C.3       6 UNK        -0.1801 
     42 N          29.0125  -49.6988  -56.1900 N.am      6 UNK        -0.4747 
     43 C          28.9910  -48.7716  -57.1622 C.2       6 UNK         0.5012 
     44 O          27.9635  -48.2101  -57.5521 O.2       6 UNK        -0.5003 
     45 CA         30.3546  -48.4089  -57.7889 C.3       5 UNK         0.0782 
     46 C46        30.2687  -47.2081  -58.7707 C.3       11 UNK        -0.0868 
     47 S47        31.8991  -46.6014  -59.3385 S.3       11 UNK        -0.2515 
     48 C48        31.8455  -44.8331  -58.8919 C.3       11 UNK         0.0199 
     49 N          31.3559  -48.2200  -56.7310 N.am      5 UNK        -0.4607 
     50 C          32.2719  -49.1365  -56.3948 C.2       4 UNK         0.5031 
     51 O          32.3283  -50.2590  -56.8980 O.2       4 UNK        -0.5119 
     52 CA         33.2936  -48.7582  -55.3108 C.3       4 UNK         0.0263 
     53 CB         34.5062  -48.0587  -55.9445 C.3       4 UNK        -0.1967 
     54 N          32.7608  -47.9375  -54.2187 N.am      4 UNK        -0.4237 
     55 C          31.7857  -48.3199  -53.3807 C.2       3 UNK         0.4908 
     56 O          31.1525  -49.3699  -53.5019 O.2       3 UNK        -0.5102 
     57 CA         31.5272  -47.3927  -52.1770 C.3       3 UNK         0.0241 
     58 CB         30.3316  -47.8456  -51.3113 C.3       3 UNK        -0.1971 
     59 N          32.7278  -47.2108  -51.3500 N.am      3 UNK        -0.4139 
     60 C          33.4615  -48.1641  -50.7458 C.2       2 UNK         0.5016 
     61 O          33.1774  -49.3628  -50.7583 O.2       2 UNK        -0.5319 
     62 CA         34.7437  -47.7057  -50.0233 C.3       2 UNK         0.0286 
     63 CB         35.8072  -48.8169  -49.9351 C.3       2 UNK        -0.1963 
     64 N          35.3151  -46.5533  -50.7150 N.am      2 UNK        -0.4790 
     65 C          35.5916  -45.3683  -50.1660 C.2       1 UNK         0.5024 
     66 O          35.5756  -45.1525  -48.9523 O.2       1 UNK        -0.4888 
     67 H67        32.1179  -41.8730  -51.8943 H         1 UNK         0.0892 
     68 H68        32.0970  -41.9905  -50.1327 H         1 UNK         0.0892 
     69 H69        33.3817  -41.0910  -50.9426 H         1 UNK         0.0892 
     70 H70        35.2807  -42.2112  -50.9827 H         1 UNK         0.3107 
     71 H71        36.8033  -43.7525  -50.7231 H         1 UNK         0.0773 
     72 H72        37.1109  -45.3359  -52.5711 H         1 UNK         0.0680 
     73 H73        36.6799  -43.7564  -53.1227 H         1 UNK         0.0680 
     74 H74        35.2575  -43.7189  -55.3511 H         1 UNK         0.0650 
     75 H75        34.3646  -43.0527  -54.0045 H         1 UNK         0.0650 
     76 H76        34.0377  -44.4772  -57.2854 H         1 UNK         0.1397 
     77 H77        29.7525  -44.6193  -57.1479 H         1 UNK         0.1363 
     78 H78        31.9661  -43.9806  -53.5579 H         1 UNK         0.1355 
     79 H79        29.5224  -43.7921  -53.5563 H         1 UNK         0.0707 
     80 H80        28.6689  -43.7412  -55.0866 H         1 UNK         0.0707 
     81 H81        26.8178  -44.6675  -53.8905 H         1 UNK         0.1034 
     82 H82        26.8893  -46.0591  -52.8442 H         1 UNK         0.1034 
     83 H83        26.5127  -47.5500  -54.8300 H         1 UNK         0.0482 
     84 H84        23.0426  -47.7783  -54.3421 H         1 UNK         0.3460 
     85 H85        24.4617  -48.5002  -55.0730 H         1 UNK         0.3460 
     86 H86        26.6831  -46.8219  -56.8703 H         1 UNK         0.2989 
     87 H87        25.0623  -44.3381  -58.6562 H         1 UNK         0.0559 
     88 H88        27.1658  -42.9894  -58.1692 H         1 UNK         0.0848 
     89 H89        27.0805  -43.6323  -59.7992 H         1 UNK         0.0848 
     90 H90        28.1168  -44.4028  -58.6066 H         1 UNK         0.0848 
     91 H91        26.9784  -46.2984  -59.4909 H         1 UNK         0.3144 
     92 H92        24.5200  -48.4716  -60.5789 H         1 UNK         0.0727 
     93 H93        26.6705  -48.9506  -61.6482 H         1 UNK         0.0790 
     94 H94        27.5430  -47.9499  -60.5006 H         1 UNK         0.0790 
     95 H95        26.4202  -47.2162  -61.6480 H         1 UNK         0.0790 
     96 H96        26.5372  -49.2170  -58.4886 H         1 UNK         0.3215 
     97 H97        24.7165  -51.8435  -57.3528 H         1 UNK         0.0863 
     98 H98        26.2650  -53.6313  -58.1402 H         1 UNK         0.0808 
     99 H99        26.7734  -52.6186  -59.4932 H         1 UNK         0.0808 
    100 H100       25.1193  -53.2046  -59.3979 H         1 UNK         0.0808 
    101 H101       27.5970  -51.4450  -57.4878 H         1 UNK         0.3118 
    102 H102       27.7196  -49.3237  -54.6233 H         1 UNK         0.0546 
    103 H103       27.5260  -51.6985  -53.8645 H         1 UNK         0.0828 
    104 H104       29.1827  -51.1277  -53.8731 H         1 UNK         0.0828 
    105 H105       28.6127  -52.1942  -55.1549 H         1 UNK         0.0828 
    106 H106       29.9199  -50.0661  -55.9355 H         1 UNK         0.3005 
    107 H107       30.6319  -49.2722  -58.3981 H         1 UNK         0.1257 
    108 H108       29.7101  -47.5044  -59.6591 H         1 UNK         0.0775 
    109 H109       29.6985  -46.3914  -58.3373 H         1 UNK         0.0775 
    110 H110       32.6895  -44.3296  -59.3657 H         1 UNK         0.0840 
    111 H111       30.9496  -44.3786  -59.3181 H         1 UNK         0.0840 
    112 H112       31.3546  -47.3251  -56.2617 H         1 UNK         0.2987 
    113 H113       33.6428  -49.6916  -54.8641 H         1 UNK         0.0785 
    114 H114       35.3090  -47.9206  -55.2205 H         1 UNK         0.0798 
    115 H115       34.2420  -47.0811  -56.3484 H         1 UNK         0.0798 
    116 H116       34.9144  -48.6496  -56.7657 H         1 UNK         0.0798 
    117 H117       33.2286  -47.0570  -54.0472 H         1 UNK         0.3079 
    118 H118       31.2867  -46.4100  -52.5847 H         1 UNK         0.0794 
    119 H119       29.4242  -47.9239  -51.9113 H         1 UNK         0.0786 
    120 H120       30.1312  -47.1328  -50.5117 H         1 UNK         0.0786 
    121 H121       30.5042  -48.8218  -50.8573 H         1 UNK         0.0786 
    122 H122       33.0272  -46.2411  -51.2528 H         1 UNK         0.3032 
    123 H123       34.4435  -47.4315  -49.0094 H         1 UNK         0.1094 
    124 H124       36.0999  -49.1722  -50.9239 H         1 UNK         0.0794 
    125 H125       36.7045  -48.4657  -49.4255 H         1 UNK         0.0794 
    126 H126       35.4342  -49.6751  -49.3746 H         1 UNK         0.0794 
    127 H127       35.3262  -46.6034  -51.7270 H         1 UNK         0.3016 
@<TRIPOS>BOND
     1    1    2 1    
     2    1   67 1    
     3    1   68 1    
     4    1   69 1    
     5    2    3 2    
     6    2    4 am   BACKBONE|DICT|INTERRES
     7    4    5 1    
     8    4   70 1    
     9    5    6 1    
    10    5   65 1    
    11    5   71 1    
    12    6    7 1    
    13    6   72 1    
    14    6   73 1    
    15    7    8 1    
    16    8    9 1    
    17    8   74 1    
    18    8   75 1    
    19    9   10 ar   
    20    9   14 ar   
    21   10   11 ar   
    22   10   76 1    
    23   11   12 ar   
    24   11   48 1    
    25   12   13 ar   
    26   12   77 1    
    27   13   14 ar   
    28   13   15 1    
    29   14   78 1    
    30   15   16 1    
    31   15   79 1    
    32   15   80 1    
    33   16   17 1    
    34   17   18 1    
    35   17   81 1    
    36   17   82 1    
    37   18   19 1    
    38   18   22 1    
    39   18   83 1    
    40   19   20 am   BACKBONE|DICT|INTERRES
    41   19   21 2    
    42   20   84 1    
    43   20   85 1    
    44   22   23 am   BACKBONE|DICT|INTERRES
    45   22   86 1    
    46   23   24 2    
    47   23   25 1    
    48   25   26 1    
    49   25   27 1    
    50   25   87 1    
    51   26   88 1    
    52   26   89 1    
    53   26   90 1    
    54   27   28 am   BACKBONE|DICT|INTERRES
    55   27   91 1    
    56   28   29 2    
    57   28   30 1    
    58   30   31 1    
    59   30   32 1    
    60   30   92 1    
    61   31   93 1    
    62   31   94 1    
    63   31   95 1    
    64   32   33 am   BACKBONE|DICT|INTERRES
    65   32   96 1    
    66   33   34 2    
    67   33   35 1    
    68   35   36 1    
    69   35   37 1    
    70   35   97 1    
    71   36   98 1    
    72   36   99 1    
    73   36  100 1    
    74   37   38 am   BACKBONE|DICT|INTERRES
    75   37  101 1    
    76   38   39 2    
    77   38   40 1    
    78   40   41 1    
    79   40   42 1    
    80   40  102 1    
    81   41  103 1    
    82   41  104 1    
    83   41  105 1    
    84   42   43 am   BACKBONE|DICT|INTERRES
    85   42  106 1    
    86   43   44 2    
    87   43   45 1    
    88   45   46 1    
    89   45   49 1    
    90   45  107 1    
    91   46   47 1    
    92   46  108 1    
    93   46  109 1    
    94   47   48 1    
    95   48  110 1    
    96   48  111 1    
    97   49   50 am   BACKBONE|DICT|INTERRES
    98   49  112 1    
    99   50   51 2    
   100   50   52 1    
   101   52   53 1    
   102   52   54 1    
   103   52  113 1    
   104   53  114 1    
   105   53  115 1    
   106   53  116 1    
   107   54   55 am   BACKBONE|DICT|INTERRES
   108   54  117 1    
   109   55   56 2    
   110   55   57 1    
   111   57   58 1    
   112   57   59 1    
   113   57  118 1    
   114   58  119 1    
   115   58  120 1    
   116   58  121 1    
   117   59   60 am   BACKBONE|DICT|INTERRES
   118   59  122 1    
   119   60   61 2    
   120   60   62 1    
   121   62   63 1    
   122   62   64 1    
   123   62  123 1    
   124   63  124 1    
   125   63  125 1    
   126   63  126 1    
   127   64   65 am   BACKBONE|DICT|INTERRES
   128   64  127 1    
   129   65   66 2    
@<TRIPOS>SUBSTRUCTURE
     1 UNK         1 GROUP             0       ****    0 ROOT    
