@<TRIPOS>MOLECULE
3R134
127   129    1
SMALL
USER_CHARGES


@<TRIPOS>ATOM
      1 CA         30.6079  -47.8212  -48.4310 C.3       0 UNK        -0.1968 
      2 C          31.6774  -46.8358  -48.8796 C.2       0 UNK         0.4852 
      3 O          32.2605  -46.1425  -48.0449 O.2       0 UNK        -0.5359 
      4 N          31.9377  -46.7724  -50.1889 N.am      1 UNK        -0.4300 
      5 CA         32.9262  -45.9028  -50.8166 C.3       1 UNK         0.0863 
      6 C6         32.3759  -44.4737  -51.0537 C.3       11 UNK        -0.0953 
      7 S7         33.6682  -43.3066  -51.5966 S.3       11 UNK        -0.2369 
      8 C8         32.7021  -42.1177  -52.5836 C.3       11 UNK         0.0226 
      9 C9         32.1073  -42.7428  -53.8391 C.ar      11 UNK        -0.0699 
     10 C10        32.9443  -43.2029  -54.8602 C.ar      11 UNK        -0.0804 
     11 C11        32.4099  -43.7775  -56.0173 C.ar      11 UNK        -0.0871 
     12 C12        31.0201  -43.8745  -56.1476 C.ar      11 UNK        -0.1008 
     13 C13        30.1700  -43.4158  -55.1391 C.ar      11 UNK        -0.0735 
     14 C14        30.7203  -42.8495  -53.9858 C.ar      11 UNK        -0.0945 
     15 C15        28.6607  -43.5539  -55.2831 C.3       11 UNK         0.0169 
     16 S16        27.9320  -42.1852  -56.2362 S.3       11 UNK        -0.2669 
     17 C17        28.0508  -42.8025  -57.9543 C.3       11 UNK        -0.0850 
     18 CA         26.6978  -43.3455  -58.4863 C.3       10 UNK         0.0855 
     19 C          26.7466  -43.6321  -60.0173 C.2       10 UNK         0.5543 
     20 N          26.3120  -44.7894  -60.5037 N.am      10 UNK        -0.7343 
     21 O          27.1780  -42.7773  -60.7871 O.2       10 UNK        -0.5027 
     22 N          26.2238  -44.4868  -57.6872 N.am      10 UNK        -0.4495 
     23 C          24.9400  -44.7510  -57.4216 C.2       10 UNK         0.4903 
     24 O          24.0039  -44.0287  -57.7695 O.2       10 UNK        -0.4860 
     25 CA         24.6647  -46.0506  -56.6406 C.3       9 UNK         0.0227 
     26 CB         23.1779  -46.4636  -56.6700 C.3       9 UNK        -0.1964 
     27 N          25.5151  -47.1767  -57.0506 N.am      9 UNK        -0.4231 
     28 C          25.6201  -47.7135  -58.2785 C.2       9 UNK         0.5014 
     29 O          25.0557  -47.2493  -59.2703 O.2       9 UNK        -0.5270 
     30 CA         26.5077  -48.9636  -58.4594 C.3       8 UNK         0.0284 
     31 CB         27.6833  -48.6619  -59.4049 C.3       8 UNK        -0.1977 
     32 N          27.0318  -49.5177  -57.2085 N.am      8 UNK        -0.4342 
     33 C          26.3131  -50.1685  -56.2830 C.2       8 UNK         0.5039 
     34 O          25.1260  -50.4644  -56.4212 O.2       8 UNK        -0.5547 
     35 CA         27.0243  -50.4983  -54.9562 C.3       7 UNK         0.0281 
     36 CB         27.6494  -51.8999  -55.0141 C.3       7 UNK        -0.1963 
     37 N          28.0412  -49.5056  -54.5792 N.am      7 UNK        -0.4444 
     38 C          27.7743  -48.2149  -54.3239 C.2       7 UNK         0.5104 
     39 O          26.6439  -47.7301  -54.3648 O.2       7 UNK        -0.5100 
     40 CA         28.9651  -47.2971  -54.0170 C.3       6 UNK         0.0396 
     41 CB         29.3306  -47.3594  -52.5280 C.3       6 UNK        -0.1801 
     42 N          30.1333  -47.6010  -54.8457 N.am      6 UNK        -0.4747 
     43 C          30.2057  -47.3579  -56.1639 C.2       6 UNK         0.5012 
     44 O          29.3156  -46.7925  -56.8014 O.2       6 UNK        -0.5003 
     45 CA         31.4458  -47.9044  -56.9055 C.3       5 UNK         0.0782 
     46 C46        32.6802  -46.9826  -56.7600 C.3       11 UNK        -0.0868 
     47 S47        32.7509  -45.7072  -58.0583 S.3       11 UNK        -0.2515 
     48 C48        33.3539  -44.2630  -57.1165 C.3       11 UNK         0.0199 
     49 N          31.7584  -49.2786  -56.5059 N.am      5 UNK        -0.4607 
     50 C          30.9528  -50.3283  -56.7183 C.2       4 UNK         0.5031 
     51 O          29.8721  -50.2486  -57.3005 O.2       4 UNK        -0.5119 
     52 CA         31.4050  -51.6944  -56.1745 C.3       4 UNK         0.0263 
     53 CB         32.0890  -52.5087  -57.2836 C.3       4 UNK        -0.1967 
     54 N          32.2948  -51.6150  -55.0158 N.am      4 UNK        -0.4237 
     55 C          32.0132  -51.0328  -53.8416 C.2       3 UNK         0.4908 
     56 O          30.9403  -50.4816  -53.5852 O.2       3 UNK        -0.5102 
     57 CA         33.1313  -51.0551  -52.7819 C.3       3 UNK         0.0241 
     58 CB         34.1206  -52.2301  -52.9537 C.3       3 UNK        -0.1971 
     59 N          33.8715  -49.7902  -52.6969 N.am      3 UNK        -0.4139 
     60 C          34.4437  -49.0880  -53.6898 C.2       2 UNK         0.5016 
     61 O          34.3738  -49.3904  -54.8834 O.2       2 UNK        -0.5319 
     62 CA         35.2324  -47.8322  -53.2517 C.3       2 UNK         0.0286 
     63 CB         35.5718  -46.8731  -54.4124 C.3       2 UNK        -0.1963 
     64 N          34.6083  -47.0911  -52.1443 N.am      2 UNK        -0.4790 
     65 C          33.3553  -46.6121  -52.1091 C.2       1 UNK         0.5024 
     66 O          32.5339  -46.7654  -53.0133 O.2       1 UNK        -0.4888 
     67 H67        31.0343  -48.5502  -47.7424 H         1 UNK         0.0892 
     68 H68        30.1718  -48.3624  -49.2706 H         1 UNK         0.0892 
     69 H69        29.8056  -47.2941  -47.9154 H         1 UNK         0.0892 
     70 H70        31.4526  -47.3803  -50.8343 H         1 UNK         0.3107 
     71 H71        33.7934  -45.8331  -50.1556 H         1 UNK         0.0773 
     72 H72        31.9524  -44.0784  -50.1294 H         1 UNK         0.0680 
     73 H73        31.5566  -44.4958  -51.7736 H         1 UNK         0.0680 
     74 H74        31.9220  -41.6865  -51.9542 H         1 UNK         0.0650 
     75 H75        33.3532  -41.2919  -52.8734 H         1 UNK         0.0650 
     76 H76        34.0163  -43.1168  -54.7458 H         1 UNK         0.1397 
     77 H77        30.5971  -44.3230  -57.0330 H         1 UNK         0.1363 
     78 H78        30.0672  -42.4944  -53.2005 H         1 UNK         0.1355 
     79 H79        28.1947  -43.5775  -54.2970 H         1 UNK         0.0707 
     80 H80        28.4108  -44.5037  -55.7550 H         1 UNK         0.0707 
     81 H81        28.8202  -43.5680  -58.0392 H         1 UNK         0.1034 
     82 H82        28.3947  -41.9674  -58.5674 H         1 UNK         0.1034 
     83 H83        25.9757  -42.5337  -58.3800 H         1 UNK         0.0482 
     84 H84        26.3498  -44.9447  -61.4982 H         1 UNK         0.3460 
     85 H85        25.9091  -45.4987  -59.9022 H         1 UNK         0.3460 
     86 H86        26.9259  -45.1515  -57.3958 H         1 UNK         0.2989 
     87 H87        24.9253  -45.8379  -55.6029 H         1 UNK         0.0559 
     88 H88        22.5447  -45.6825  -56.2475 H         1 UNK         0.0848 
     89 H89        23.0067  -47.3682  -56.0864 H         1 UNK         0.0848 
     90 H90        22.8307  -46.6498  -57.6870 H         1 UNK         0.0848 
     91 H91        26.0354  -47.6084  -56.2933 H         1 UNK         0.3144 
     92 H92        25.8854  -49.7284  -58.9285 H         1 UNK         0.0727 
     93 H93        28.2873  -49.5516  -59.5841 H         1 UNK         0.0790 
     94 H94        28.3377  -47.8888  -59.0025 H         1 UNK         0.0790 
     95 H95        27.3277  -48.3130  -60.3753 H         1 UNK         0.0790 
     96 H96        28.0285  -49.4063  -57.0477 H         1 UNK         0.3215 
     97 H97        26.2683  -50.4969  -54.1679 H         1 UNK         0.0863 
     98 H98        28.2492  -52.1144  -54.1292 H         1 UNK         0.0808 
     99 H99        28.2796  -52.0205  -55.8940 H         1 UNK         0.0808 
    100 H100       26.8726  -52.6632  -55.0739 H         1 UNK         0.0808 
    101 H101       28.9999  -49.8239  -54.4948 H         1 UNK         0.3118 
    102 H102       28.6515  -46.2753  -54.2331 H         1 UNK         0.0546 
    103 H103       28.4458  -47.2453  -51.9000 H         1 UNK         0.0828 
    104 H104       30.0092  -46.5487  -52.2678 H         1 UNK         0.0828 
    105 H105       29.8020  -48.3066  -52.2642 H         1 UNK         0.0828 
    106 H106       30.9122  -48.0572  -54.3880 H         1 UNK         0.3005 
    107 H107       31.1761  -47.9569  -57.9632 H         1 UNK         0.1257 
    108 H108       33.6035  -47.5579  -56.8463 H         1 UNK         0.0775 
    109 H109       32.7071  -46.5257  -55.7699 H         1 UNK         0.0775 
    110 H110       34.3284  -44.5140  -56.6943 H         1 UNK         0.0840 
    111 H111       33.5222  -43.4408  -57.8131 H         1 UNK         0.0840 
    112 H112       32.6290  -49.4213  -56.0028 H         1 UNK         0.2987 
    113 H113       30.5154  -52.2369  -55.8561 H         1 UNK         0.0785 
    114 H114       33.0108  -52.0341  -57.6226 H         1 UNK         0.0798 
    115 H115       31.4361  -52.6101  -58.1519 H         1 UNK         0.0798 
    116 H116       32.3327  -53.5161  -56.9455 H         1 UNK         0.0798 
    117 H117       33.2228  -51.9947  -55.1354 H         1 UNK         0.3079 
    118 H118       32.6299  -51.1871  -51.8218 H         1 UNK         0.0794 
    119 H119       34.7495  -52.1185  -53.8378 H         1 UNK         0.0786 
    120 H120       33.5949  -53.1828  -53.0342 H         1 UNK         0.0786 
    121 H121       34.7842  -52.3068  -52.0921 H         1 UNK         0.0786 
    122 H122       33.9676  -49.4130  -51.7650 H         1 UNK         0.3032 
    123 H123       36.1802  -48.2171  -52.8711 H         1 UNK         0.1094 
    124 H124       36.0131  -47.4030  -55.2575 H         1 UNK         0.0794 
    125 H125       34.6920  -46.3461  -54.7745 H         1 UNK         0.0794 
    126 H126       36.2932  -46.1199  -54.0962 H         1 UNK         0.0794 
    127 H127       35.1993  -46.9367  -51.3381 H         1 UNK         0.3016 
@<TRIPOS>BOND
     1    1    2 1    
     2    1   67 1    
     3    1   68 1    
     4    1   69 1    
     5    2    3 2    
     6    2    4 am   BACKBONE|DICT|INTERRES
     7    4    5 1    
     8    4   70 1    
     9    5    6 1    
    10    5   65 1    
    11    5   71 1    
    12    6    7 1    
    13    6   72 1    
    14    6   73 1    
    15    7    8 1    
    16    8    9 1    
    17    8   74 1    
    18    8   75 1    
    19    9   10 ar   
    20    9   14 ar   
    21   10   11 ar   
    22   10   76 1    
    23   11   12 ar   
    24   11   48 1    
    25   12   13 ar   
    26   12   77 1    
    27   13   14 ar   
    28   13   15 1    
    29   14   78 1    
    30   15   16 1    
    31   15   79 1    
    32   15   80 1    
    33   16   17 1    
    34   17   18 1    
    35   17   81 1    
    36   17   82 1    
    37   18   19 1    
    38   18   22 1    
    39   18   83 1    
    40   19   20 am   BACKBONE|DICT|INTERRES
    41   19   21 2    
    42   20   84 1    
    43   20   85 1    
    44   22   23 am   BACKBONE|DICT|INTERRES
    45   22   86 1    
    46   23   24 2    
    47   23   25 1    
    48   25   26 1    
    49   25   27 1    
    50   25   87 1    
    51   26   88 1    
    52   26   89 1    
    53   26   90 1    
    54   27   28 am   BACKBONE|DICT|INTERRES
    55   27   91 1    
    56   28   29 2    
    57   28   30 1    
    58   30   31 1    
    59   30   32 1    
    60   30   92 1    
    61   31   93 1    
    62   31   94 1    
    63   31   95 1    
    64   32   33 am   BACKBONE|DICT|INTERRES
    65   32   96 1    
    66   33   34 2    
    67   33   35 1    
    68   35   36 1    
    69   35   37 1    
    70   35   97 1    
    71   36   98 1    
    72   36   99 1    
    73   36  100 1    
    74   37   38 am   BACKBONE|DICT|INTERRES
    75   37  101 1    
    76   38   39 2    
    77   38   40 1    
    78   40   41 1    
    79   40   42 1    
    80   40  102 1    
    81   41  103 1    
    82   41  104 1    
    83   41  105 1    
    84   42   43 am   BACKBONE|DICT|INTERRES
    85   42  106 1    
    86   43   44 2    
    87   43   45 1    
    88   45   46 1    
    89   45   49 1    
    90   45  107 1    
    91   46   47 1    
    92   46  108 1    
    93   46  109 1    
    94   47   48 1    
    95   48  110 1    
    96   48  111 1    
    97   49   50 am   BACKBONE|DICT|INTERRES
    98   49  112 1    
    99   50   51 2    
   100   50   52 1    
   101   52   53 1    
   102   52   54 1    
   103   52  113 1    
   104   53  114 1    
   105   53  115 1    
   106   53  116 1    
   107   54   55 am   BACKBONE|DICT|INTERRES
   108   54  117 1    
   109   55   56 2    
   110   55   57 1    
   111   57   58 1    
   112   57   59 1    
   113   57  118 1    
   114   58  119 1    
   115   58  120 1    
   116   58  121 1    
   117   59   60 am   BACKBONE|DICT|INTERRES
   118   59  122 1    
   119   60   61 2    
   120   60   62 1    
   121   62   63 1    
   122   62   64 1    
   123   62  123 1    
   124   63  124 1    
   125   63  125 1    
   126   63  126 1    
   127   64   65 am   BACKBONE|DICT|INTERRES
   128   64  127 1    
   129   65   66 2    
@<TRIPOS>SUBSTRUCTURE
     1 UNK         1 GROUP             0       ****    0 ROOT    
