@<TRIPOS>MOLECULE
3R134
127   129    1
SMALL
USER_CHARGES


@<TRIPOS>ATOM
      1 CA         29.4562  -41.6149  -51.2925 C.3       0 UNK        -0.1968 
      2 C          30.2251  -42.8440  -50.8285 C.2       0 UNK         0.4852 
      3 O          30.1530  -43.1999  -49.6513 O.2       0 UNK        -0.5359 
      4 N          30.9706  -43.4804  -51.7418 N.am      1 UNK        -0.4300 
      5 CA         31.7573  -44.6950  -51.5046 C.3       1 UNK         0.0863 
      6 C6         32.6034  -45.0862  -52.7427 C.3       11 UNK        -0.0953 
      7 S7         33.7840  -43.7953  -53.2422 S.3       11 UNK        -0.2369 
      8 C8         34.5488  -44.5868  -54.7026 C.3       11 UNK         0.0226 
      9 C9         33.7345  -44.5655  -56.0014 C.ar      11 UNK        -0.0699 
     10 C10        34.2753  -45.2028  -57.1236 C.ar      11 UNK        -0.0804 
     11 C11        33.6103  -45.1854  -58.3533 C.ar      11 UNK        -0.0871 
     12 C12        32.3683  -44.5526  -58.4517 C.ar      11 UNK        -0.1008 
     13 C13        31.8142  -43.9011  -57.3460 C.ar      11 UNK        -0.0735 
     14 C14        32.5044  -43.9043  -56.1298 C.ar      11 UNK        -0.0945 
     15 C15        30.5033  -43.1380  -57.4895 C.3       11 UNK         0.0169 
     16 S16        29.0983  -44.0272  -56.7504 S.3       11 UNK        -0.2669 
     17 C17        29.1491  -43.4253  -55.0246 C.3       11 UNK        -0.0850 
     18 CA         27.8338  -43.6643  -54.2396 C.3       10 UNK         0.0855 
     19 C          26.6542  -42.7926  -54.7650 C.2       10 UNK         0.5543 
     20 N          25.5660  -43.3673  -55.2661 N.am      10 UNK        -0.7343 
     21 O          26.7269  -41.5681  -54.7004 O.2       10 UNK        -0.5027 
     22 N          27.5448  -45.0970  -54.1312 N.am      10 UNK        -0.4495 
     23 C          26.7547  -45.6634  -53.2122 C.2       10 UNK         0.4903 
     24 O          26.2380  -45.0455  -52.2797 O.2       10 UNK        -0.4860 
     25 CA         26.4929  -47.1762  -53.3755 C.3       9 UNK         0.0227 
     26 CB         25.1496  -47.6102  -52.7526 C.3       9 UNK        -0.1964 
     27 N          26.5901  -47.6562  -54.7640 N.am      9 UNK        -0.4231 
     28 C          25.8965  -47.2294  -55.8317 C.2       9 UNK         0.5014 
     29 O          25.0687  -46.3175  -55.7860 O.2       9 UNK        -0.5270 
     30 CA         26.1974  -47.8922  -57.1922 C.3       8 UNK         0.0284 
     31 CB         26.8299  -46.8747  -58.1566 C.3       8 UNK        -0.1977 
     32 N          27.0589  -49.0806  -57.1352 N.am      8 UNK        -0.4342 
     33 C          26.7039  -50.2688  -56.6208 C.2       8 UNK         0.5039 
     34 O          25.6181  -50.4715  -56.0754 O.2       8 UNK        -0.5547 
     35 CA         27.7370  -51.4120  -56.7234 C.3       7 UNK         0.0281 
     36 CB         27.1086  -52.8100  -56.5383 C.3       7 UNK        -0.1963 
     37 N          28.5375  -51.3563  -57.9525 N.am      7 UNK        -0.4444 
     38 C          28.0920  -51.3989  -59.2194 C.2       7 UNK         0.5104 
     39 O          26.9158  -51.6006  -59.5249 O.2       7 UNK        -0.5100 
     40 CA         29.1337  -51.1641  -60.3377 C.3       6 UNK         0.0396 
     41 CB         28.5281  -50.4107  -61.5412 C.3       6 UNK        -0.1801 
     42 N          30.3716  -50.5033  -59.8920 N.am      6 UNK        -0.4747 
     43 C          30.4787  -49.2990  -59.3092 C.2       6 UNK         0.5012 
     44 O          29.5173  -48.5668  -59.0603 O.2       6 UNK        -0.5003 
     45 CA         31.8983  -48.8614  -58.8988 C.3       5 UNK         0.0782 
     46 C46        32.5354  -47.9713  -59.9886 C.3       11 UNK        -0.0868 
     47 S47        34.2776  -47.5920  -59.6057 S.3       11 UNK        -0.2515 
     48 C48        34.2760  -45.7732  -59.5916 C.3       11 UNK         0.0199 
     49 N          31.8794  -48.1989  -57.5934 N.am      5 UNK        -0.4607 
     50 C          31.5297  -48.7902  -56.4472 C.2       4 UNK         0.5031 
     51 O          31.2131  -49.9796  -56.3502 O.2       4 UNK        -0.5119 
     52 CA         31.4547  -47.8734  -55.2210 C.3       4 UNK         0.0263 
     53 CB         30.0516  -47.2632  -55.1272 C.3       4 UNK        -0.1967 
     54 N          31.7398  -48.5972  -53.9839 N.am      4 UNK        -0.4237 
     55 C          32.9524  -49.0193  -53.6078 C.2       3 UNK         0.4908 
     56 O          33.9851  -48.7749  -54.2343 O.2       3 UNK        -0.5102 
     57 CA         33.0139  -49.8074  -52.2857 C.3       3 UNK         0.0241 
     58 CB         34.4503  -50.2041  -51.8946 C.3       3 UNK        -0.1971 
     59 N          32.4261  -49.0215  -51.1999 N.am      3 UNK        -0.4139 
     60 C          31.1310  -49.0177  -50.8542 C.2       2 UNK         0.5016 
     61 O          30.2787  -49.7350  -51.3781 O.2       2 UNK        -0.5319 
     62 CA         30.7166  -47.9760  -49.8019 C.3       2 UNK         0.0286 
     63 CB         31.1391  -48.4141  -48.3899 C.3       2 UNK        -0.1963 
     64 N          31.2965  -46.6659  -50.1149 N.am      2 UNK        -0.4790 
     65 C          30.8621  -45.8881  -51.1165 C.2       1 UNK         0.5024 
     66 O          29.8427  -46.1206  -51.7685 O.2       1 UNK        -0.4888 
     67 H67        29.6392  -41.3881  -52.3426 H         1 UNK         0.0892 
     68 H68        28.3858  -41.7710  -51.1603 H         1 UNK         0.0892 
     69 H69        29.7485  -40.7458  -50.7038 H         1 UNK         0.0892 
     70 H70        31.0228  -43.1144  -52.6791 H         1 UNK         0.3107 
     71 H71        32.4345  -44.4848  -50.6740 H         1 UNK         0.0773 
     72 H72        31.9588  -45.3102  -53.5934 H         1 UNK         0.0680 
     73 H73        33.1744  -45.9955  -52.5439 H         1 UNK         0.0680 
     74 H74        35.4974  -44.0822  -54.8904 H         1 UNK         0.0650 
     75 H75        34.7959  -45.6199  -54.4519 H         1 UNK         0.0650 
     76 H76        35.2380  -45.6910  -57.0491 H         1 UNK         0.1397 
     77 H77        31.8519  -44.5276  -59.4018 H         1 UNK         0.1363 
     78 H78        32.0815  -43.3687  -55.2946 H         1 UNK         0.1355 
     79 H79        30.2812  -42.9725  -58.5448 H         1 UNK         0.0707 
     80 H80        30.5990  -42.1450  -57.0483 H         1 UNK         0.0707 
     81 H81        29.4035  -42.3639  -55.0150 H         1 UNK         0.1034 
     82 H82        29.9653  -43.9366  -54.5152 H         1 UNK         0.1034 
     83 H83        28.0131  -43.3123  -53.2226 H         1 UNK         0.0482 
     84 H84        25.4925  -44.3767  -55.3337 H         1 UNK         0.3460 
     85 H85        24.8111  -42.7879  -55.5959 H         1 UNK         0.3460 
     86 H86        27.8965  -45.6689  -54.8830 H         1 UNK         0.2989 
     87 H87        27.2909  -47.6769  -52.8248 H         1 UNK         0.0559 
     88 H88        24.9904  -48.6832  -52.8602 H         1 UNK         0.0848 
     89 H89        24.3064  -47.0980  -53.2174 H         1 UNK         0.0848 
     90 H90        25.1193  -47.3854  -51.6858 H         1 UNK         0.0848 
     91 H91        27.2307  -48.4204  -54.9179 H         1 UNK         0.3144 
     92 H92        25.2359  -48.1993  -57.6090 H         1 UNK         0.0727 
     93 H93        26.9257  -47.2883  -59.1608 H         1 UNK         0.0790 
     94 H94        27.8243  -46.5723  -57.8270 H         1 UNK         0.0790 
     95 H95        26.2238  -45.9711  -58.2370 H         1 UNK         0.0790 
     96 H96        27.9520  -49.0065  -57.6116 H         1 UNK         0.3215 
     97 H97        28.4373  -51.2561  -55.9009 H         1 UNK         0.0863 
     98 H98        27.8615  -53.5955  -56.6017 H         1 UNK         0.0808 
     99 H99        26.3455  -53.0144  -57.2899 H         1 UNK         0.0808 
    100 H100       26.6323  -52.8984  -55.5611 H         1 UNK         0.0808 
    101 H101       29.5241  -51.1760  -57.8157 H         1 UNK         0.3118 
    102 H102       29.4280  -52.1558  -60.6839 H         1 UNK         0.0546 
    103 H103       28.1428  -49.4319  -61.2534 H         1 UNK         0.0828 
    104 H104       27.6993  -50.9688  -61.9786 H         1 UNK         0.0828 
    105 H105       29.2656  -50.2624  -62.3298 H         1 UNK         0.0828 
    106 H106       31.2161  -51.0410  -60.0371 H         1 UNK         0.3005 
    107 H107       32.5101  -49.7600  -58.7895 H         1 UNK         0.1257 
    108 H108       32.5154  -48.4750  -60.9571 H         1 UNK         0.0775 
    109 H109       31.9656  -47.0487  -60.1145 H         1 UNK         0.0775 
    110 H110       35.3099  -45.4271  -59.6334 H         1 UNK         0.0840 
    111 H111       33.8030  -45.4036  -60.5029 H         1 UNK         0.0840 
    112 H112       32.1032  -47.2137  -57.5970 H         1 UNK         0.2987 
    113 H113       32.1866  -47.0709  -55.3359 H         1 UNK         0.0785 
    114 H114       30.0012  -46.5074  -54.3462 H         1 UNK         0.0798 
    115 H115       29.3063  -48.0269  -54.9105 H         1 UNK         0.0798 
    116 H116       29.7692  -46.7847  -56.0652 H         1 UNK         0.0798 
    117 H117       30.9471  -48.8684  -53.4166 H         1 UNK         0.3079 
    118 H118       32.4410  -50.7266  -52.4276 H         1 UNK         0.0794 
    119 H119       34.9098  -50.8202  -52.6689 H         1 UNK         0.0786 
    120 H120       34.4634  -50.7843  -50.9718 H         1 UNK         0.0786 
    121 H121       35.0878  -49.3307  -51.7510 H         1 UNK         0.0786 
    122 H122       33.0429  -48.3693  -50.7386 H         1 UNK         0.3032 
    123 H123       29.6269  -47.8944  -49.8227 H         1 UNK         0.1094 
    124 H124       32.2219  -48.5024  -48.2936 H         1 UNK         0.0794 
    125 H125       30.7927  -47.7059  -47.6369 H         1 UNK         0.0794 
    126 H126       30.7096  -49.3854  -48.1401 H         1 UNK         0.0794 
    127 H127       32.1234  -46.3935  -49.6021 H         1 UNK         0.3016 
@<TRIPOS>BOND
     1    1    2 1    
     2    1   67 1    
     3    1   68 1    
     4    1   69 1    
     5    2    3 2    
     6    2    4 am   BACKBONE|DICT|INTERRES
     7    4    5 1    
     8    4   70 1    
     9    5    6 1    
    10    5   65 1    
    11    5   71 1    
    12    6    7 1    
    13    6   72 1    
    14    6   73 1    
    15    7    8 1    
    16    8    9 1    
    17    8   74 1    
    18    8   75 1    
    19    9   10 ar   
    20    9   14 ar   
    21   10   11 ar   
    22   10   76 1    
    23   11   12 ar   
    24   11   48 1    
    25   12   13 ar   
    26   12   77 1    
    27   13   14 ar   
    28   13   15 1    
    29   14   78 1    
    30   15   16 1    
    31   15   79 1    
    32   15   80 1    
    33   16   17 1    
    34   17   18 1    
    35   17   81 1    
    36   17   82 1    
    37   18   19 1    
    38   18   22 1    
    39   18   83 1    
    40   19   20 am   BACKBONE|DICT|INTERRES
    41   19   21 2    
    42   20   84 1    
    43   20   85 1    
    44   22   23 am   BACKBONE|DICT|INTERRES
    45   22   86 1    
    46   23   24 2    
    47   23   25 1    
    48   25   26 1    
    49   25   27 1    
    50   25   87 1    
    51   26   88 1    
    52   26   89 1    
    53   26   90 1    
    54   27   28 am   BACKBONE|DICT|INTERRES
    55   27   91 1    
    56   28   29 2    
    57   28   30 1    
    58   30   31 1    
    59   30   32 1    
    60   30   92 1    
    61   31   93 1    
    62   31   94 1    
    63   31   95 1    
    64   32   33 am   BACKBONE|DICT|INTERRES
    65   32   96 1    
    66   33   34 2    
    67   33   35 1    
    68   35   36 1    
    69   35   37 1    
    70   35   97 1    
    71   36   98 1    
    72   36   99 1    
    73   36  100 1    
    74   37   38 am   BACKBONE|DICT|INTERRES
    75   37  101 1    
    76   38   39 2    
    77   38   40 1    
    78   40   41 1    
    79   40   42 1    
    80   40  102 1    
    81   41  103 1    
    82   41  104 1    
    83   41  105 1    
    84   42   43 am   BACKBONE|DICT|INTERRES
    85   42  106 1    
    86   43   44 2    
    87   43   45 1    
    88   45   46 1    
    89   45   49 1    
    90   45  107 1    
    91   46   47 1    
    92   46  108 1    
    93   46  109 1    
    94   47   48 1    
    95   48  110 1    
    96   48  111 1    
    97   49   50 am   BACKBONE|DICT|INTERRES
    98   49  112 1    
    99   50   51 2    
   100   50   52 1    
   101   52   53 1    
   102   52   54 1    
   103   52  113 1    
   104   53  114 1    
   105   53  115 1    
   106   53  116 1    
   107   54   55 am   BACKBONE|DICT|INTERRES
   108   54  117 1    
   109   55   56 2    
   110   55   57 1    
   111   57   58 1    
   112   57   59 1    
   113   57  118 1    
   114   58  119 1    
   115   58  120 1    
   116   58  121 1    
   117   59   60 am   BACKBONE|DICT|INTERRES
   118   59  122 1    
   119   60   61 2    
   120   60   62 1    
   121   62   63 1    
   122   62   64 1    
   123   62  123 1    
   124   63  124 1    
   125   63  125 1    
   126   63  126 1    
   127   64   65 am   BACKBONE|DICT|INTERRES
   128   64  127 1    
   129   65   66 2    
@<TRIPOS>SUBSTRUCTURE
     1 UNK         1 GROUP             0       ****    0 ROOT    
