@<TRIPOS>MOLECULE
3R134
127   129    1
SMALL
USER_CHARGES


@<TRIPOS>ATOM
      1 CA         33.7332  -46.0906  -50.4866 C.3       0 UNK        -0.1968 
      2 C          35.0333  -46.2324  -51.2644 C.2       0 UNK         0.4852 
      3 O          36.0683  -46.5651  -50.6837 O.2       0 UNK        -0.5359 
      4 N          34.9880  -45.9971  -52.5802 N.am      1 UNK        -0.4300 
      5 CA         36.0936  -46.1362  -53.5355 C.3       1 UNK         0.0863 
      6 C6         35.8942  -45.2232  -54.7796 C.3       11 UNK        -0.0953 
      7 S7         34.1916  -45.2362  -55.4539 S.3       11 UNK        -0.2369 
      8 C8         33.6269  -43.5769  -54.9616 C.3       11 UNK         0.0226 
      9 C9         32.1096  -43.4728  -54.9611 C.ar      11 UNK        -0.0699 
     10 C10        31.4155  -43.3134  -53.7568 C.ar      11 UNK        -0.0804 
     11 C11        30.0229  -43.1914  -53.7513 C.ar      11 UNK        -0.0871 
     12 C12        29.3248  -43.2481  -54.9597 C.ar      11 UNK        -0.1008 
     13 C13        30.0065  -43.4073  -56.1699 C.ar      11 UNK        -0.0735 
     14 C14        31.4000  -43.5135  -56.1653 C.ar      11 UNK        -0.0945 
     15 C15        29.2306  -43.4943  -57.4744 C.3       11 UNK         0.0169 
     16 S16        28.1864  -42.0259  -57.7434 S.3       11 UNK        -0.2669 
     17 C17        26.8015  -42.8024  -58.6330 C.3       11 UNK        -0.0850 
     18 CA         25.8589  -43.6020  -57.6717 C.3       10 UNK         0.0855 
     19 C          24.4373  -42.9785  -57.5227 C.2       10 UNK         0.5543 
     20 N          23.3818  -43.7703  -57.3771 N.am      10 UNK        -0.7343 
     21 O          24.2885  -41.7591  -57.5018 O.2       10 UNK        -0.5027 
     22 N          25.8859  -45.0503  -57.9407 N.am      10 UNK        -0.4495 
     23 C          25.5117  -45.6392  -59.0848 C.2       10 UNK         0.4903 
     24 O          25.0590  -45.0272  -60.0539 O.2       10 UNK        -0.4860 
     25 CA         25.6763  -47.1682  -59.1510 C.3       9 UNK         0.0227 
     26 CB         25.5173  -47.7329  -60.5786 C.3       9 UNK        -0.1964 
     27 N          26.9240  -47.6435  -58.5428 N.am      9 UNK        -0.4231 
     28 C          28.1870  -47.3559  -58.9001 C.2       9 UNK         0.5014 
     29 O          28.4829  -46.5830  -59.8122 O.2       9 UNK        -0.5270 
     30 CA         29.3249  -48.0480  -58.1164 C.3       8 UNK         0.0284 
     31 CB         30.1508  -47.0220  -57.3215 C.3       8 UNK        -0.1977 
     32 N          28.8593  -49.0862  -57.1941 N.am      8 UNK        -0.4342 
     33 C          28.3682  -50.2827  -57.5432 C.2       8 UNK         0.5039 
     34 O          28.3552  -50.7123  -58.6967 O.2       8 UNK        -0.5547 
     35 CA         27.7196  -51.1046  -56.4169 C.3       7 UNK         0.0281 
     36 CB         28.7698  -51.9401  -55.6669 C.3       7 UNK        -0.1963 
     37 N          26.9871  -50.2533  -55.4711 N.am      7 UNK        -0.4444 
     38 C          25.8301  -49.6332  -55.7470 C.2       7 UNK         0.5104 
     39 O          25.2353  -49.7468  -56.8175 O.2       7 UNK        -0.5100 
     40 CA         25.2544  -48.7017  -54.6666 C.3       6 UNK         0.0396 
     41 CB         24.3941  -49.4977  -53.6730 C.3       6 UNK        -0.1801 
     42 N          26.2921  -47.9698  -53.9379 N.am      6 UNK        -0.4747 
     43 C          27.0045  -46.9485  -54.4384 C.2       6 UNK         0.5012 
     44 O          26.8233  -46.4699  -55.5599 O.2       6 UNK        -0.5003 
     45 CA         28.1364  -46.3982  -53.5429 C.3       5 UNK         0.0782 
     46 C46        27.6083  -45.2551  -52.6425 C.3       11 UNK        -0.0868 
     47 S47        28.9152  -44.5340  -51.5892 S.3       11 UNK        -0.2515 
     48 C48        29.2762  -42.9695  -52.4441 C.3       11 UNK         0.0199 
     49 N          28.8103  -47.4441  -52.7587 N.am      5 UNK        -0.4607 
     50 C          29.4498  -48.4971  -53.2775 C.2       4 UNK         0.5031 
     51 O          29.4664  -48.7558  -54.4819 O.2       4 UNK        -0.5119 
     52 CA         30.1225  -49.4563  -52.2828 C.3       4 UNK         0.0263 
     53 CB         29.0898  -50.4445  -51.7154 C.3       4 UNK        -0.1967 
     54 N          31.1947  -50.2113  -52.9326 N.am      4 UNK        -0.4237 
     55 C          32.3668  -49.6834  -53.3036 C.2       3 UNK         0.4908 
     56 O          32.7342  -48.5425  -53.0079 O.2       3 UNK        -0.5102 
     57 CA         33.2488  -50.5704  -54.1970 C.3       3 UNK         0.0241 
     58 CB         32.8724  -50.3699  -55.6752 C.3       3 UNK        -0.1971 
     59 N          34.6572  -50.2317  -54.0197 N.am      3 UNK        -0.4139 
     60 C          35.4153  -50.6021  -52.9826 C.2       2 UNK         0.5016 
     61 O          35.0698  -51.4355  -52.1437 O.2       2 UNK        -0.5319 
     62 CA         36.7726  -49.8918  -52.8286 C.3       2 UNK         0.0286 
     63 CB         37.8149  -50.4220  -53.8334 C.3       2 UNK        -0.1963 
     64 N          36.6582  -48.4250  -52.8646 N.am      2 UNK        -0.4790 
     65 C          36.3212  -47.6238  -53.8870 C.2       1 UNK         0.5024 
     66 O          36.1439  -48.0293  -55.0374 O.2       1 UNK        -0.4888 
     67 H67        32.9018  -45.8071  -51.1324 H         1 UNK         0.0892 
     68 H68        33.4796  -47.0365  -50.0087 H         1 UNK         0.0892 
     69 H69        33.8379  -45.3315  -49.7120 H         1 UNK         0.0892 
     70 H70        34.0956  -45.8008  -53.0129 H         1 UNK         0.3107 
     71 H71        37.0106  -45.8023  -53.0450 H         1 UNK         0.0773 
     72 H72        36.1580  -44.1993  -54.5115 H         1 UNK         0.0680 
     73 H73        36.5891  -45.4875  -55.5790 H         1 UNK         0.0680 
     74 H74        34.0456  -42.8373  -55.6455 H         1 UNK         0.0650 
     75 H75        34.0178  -43.3387  -53.9710 H         1 UNK         0.0650 
     76 H76        31.9575  -43.2722  -52.8218 H         1 UNK         0.1397 
     77 H77        28.2473  -43.1589  -54.9643 H         1 UNK         0.1363 
     78 H78        31.9365  -43.6397  -57.0959 H         1 UNK         0.1355 
     79 H79        29.8995  -43.6142  -58.3280 H         1 UNK         0.0707 
     80 H80        28.6141  -44.3928  -57.4393 H         1 UNK         0.0707 
     81 H81        27.2228  -43.4393  -59.4126 H         1 UNK         0.1034 
     82 H82        26.2670  -42.0215  -59.1769 H         1 UNK         0.1034 
     83 H83        26.2575  -43.5317  -56.6591 H         1 UNK         0.0482 
     84 H84        23.4928  -44.7712  -57.3799 H         1 UNK         0.3460 
     85 H85        22.4669  -43.3615  -57.2691 H         1 UNK         0.3460 
     86 H86        26.2251  -45.6306  -57.1769 H         1 UNK         0.2989 
     87 H87        24.8693  -47.5819  -58.5450 H         1 UNK         0.0559 
     88 H88        26.2641  -47.3251  -61.2606 H         1 UNK         0.0848 
     89 H89        24.5361  -47.4912  -60.9889 H         1 UNK         0.0848 
     90 H90        25.6121  -48.8188  -60.5875 H         1 UNK         0.0848 
     91 H91        26.8008  -48.2812  -57.7682 H         1 UNK         0.3144 
     92 H92        29.9813  -48.5186  -58.8511 H         1 UNK         0.0727 
     93 H93        30.9913  -47.4953  -56.8129 H         1 UNK         0.0790 
     94 H94        29.5469  -46.5201  -56.5655 H         1 UNK         0.0790 
     95 H95        30.5618  -46.2537  -57.9773 H         1 UNK         0.0790 
     96 H96        28.9192  -48.8675  -56.1997 H         1 UNK         0.3215 
     97 H97        27.0065  -51.7921  -56.8776 H         1 UNK         0.0863 
     98 H98        29.5177  -51.3140  -55.1822 H         1 UNK         0.0808 
     99 H99        29.2983  -52.6039  -56.3525 H         1 UNK         0.0808 
    100 H100       28.3078  -52.5658  -54.9032 H         1 UNK         0.0808 
    101 H101       27.4424  -50.0522  -54.5931 H         1 UNK         0.3118 
    102 H102       24.6095  -47.9741  -55.1646 H         1 UNK         0.0546 
    103 H103       23.9174  -48.8404  -52.9457 H         1 UNK         0.0828 
    104 H104       24.9816  -50.2356  -53.1252 H         1 UNK         0.0828 
    105 H105       23.5981  -50.0350  -54.1908 H         1 UNK         0.0828 
    106 H106       26.5063  -48.2857  -53.0029 H         1 UNK         0.3005 
    107 H107       28.8876  -45.9807  -54.2168 H         1 UNK         0.1257 
    108 H108       26.8199  -45.6237  -51.9834 H         1 UNK         0.0775 
    109 H109       27.1495  -44.4680  -53.2434 H         1 UNK         0.0775 
    110 H110       28.3492  -42.4202  -52.6165 H         1 UNK         0.0840 
    111 H111       29.8766  -42.3417  -51.7838 H         1 UNK         0.0840 
    112 H112       28.8396  -47.2920  -51.7607 H         1 UNK         0.2987 
    113 H113       30.5496  -48.8733  -51.4637 H         1 UNK         0.0785 
    114 H114       29.5473  -51.1238  -50.9958 H         1 UNK         0.0798 
    115 H115       28.2873  -49.9206  -51.1945 H         1 UNK         0.0798 
    116 H116       28.6307  -51.0484  -52.4992 H         1 UNK         0.0798 
    117 H117       30.9647  -51.1445  -53.2396 H         1 UNK         0.3079 
    118 H118       33.0974  -51.6180  -53.9279 H         1 UNK         0.0794 
    119 H119       31.8255  -50.6180  -55.8540 H         1 UNK         0.0786 
    120 H120       33.4725  -51.0046  -56.3275 H         1 UNK         0.0786 
    121 H121       33.0165  -49.3347  -55.9891 H         1 UNK         0.0786 
    122 H122       35.0254  -49.4907  -54.6099 H         1 UNK         0.3032 
    123 H123       37.1363  -50.1330  -51.8280 H         1 UNK         0.1094 
    124 H124       37.5132  -50.2609  -54.8685 H         1 UNK         0.0794 
    125 H125       38.7834  -49.9435  -53.6882 H         1 UNK         0.0794 
    126 H126       37.9616  -51.4953  -53.7059 H         1 UNK         0.0794 
    127 H127       36.7045  -47.9712  -51.9554 H         1 UNK         0.3016 
@<TRIPOS>BOND
     1    1    2 1    
     2    1   67 1    
     3    1   68 1    
     4    1   69 1    
     5    2    3 2    
     6    2    4 am   BACKBONE|DICT|INTERRES
     7    4    5 1    
     8    4   70 1    
     9    5    6 1    
    10    5   65 1    
    11    5   71 1    
    12    6    7 1    
    13    6   72 1    
    14    6   73 1    
    15    7    8 1    
    16    8    9 1    
    17    8   74 1    
    18    8   75 1    
    19    9   10 ar   
    20    9   14 ar   
    21   10   11 ar   
    22   10   76 1    
    23   11   12 ar   
    24   11   48 1    
    25   12   13 ar   
    26   12   77 1    
    27   13   14 ar   
    28   13   15 1    
    29   14   78 1    
    30   15   16 1    
    31   15   79 1    
    32   15   80 1    
    33   16   17 1    
    34   17   18 1    
    35   17   81 1    
    36   17   82 1    
    37   18   19 1    
    38   18   22 1    
    39   18   83 1    
    40   19   20 am   BACKBONE|DICT|INTERRES
    41   19   21 2    
    42   20   84 1    
    43   20   85 1    
    44   22   23 am   BACKBONE|DICT|INTERRES
    45   22   86 1    
    46   23   24 2    
    47   23   25 1    
    48   25   26 1    
    49   25   27 1    
    50   25   87 1    
    51   26   88 1    
    52   26   89 1    
    53   26   90 1    
    54   27   28 am   BACKBONE|DICT|INTERRES
    55   27   91 1    
    56   28   29 2    
    57   28   30 1    
    58   30   31 1    
    59   30   32 1    
    60   30   92 1    
    61   31   93 1    
    62   31   94 1    
    63   31   95 1    
    64   32   33 am   BACKBONE|DICT|INTERRES
    65   32   96 1    
    66   33   34 2    
    67   33   35 1    
    68   35   36 1    
    69   35   37 1    
    70   35   97 1    
    71   36   98 1    
    72   36   99 1    
    73   36  100 1    
    74   37   38 am   BACKBONE|DICT|INTERRES
    75   37  101 1    
    76   38   39 2    
    77   38   40 1    
    78   40   41 1    
    79   40   42 1    
    80   40  102 1    
    81   41  103 1    
    82   41  104 1    
    83   41  105 1    
    84   42   43 am   BACKBONE|DICT|INTERRES
    85   42  106 1    
    86   43   44 2    
    87   43   45 1    
    88   45   46 1    
    89   45   49 1    
    90   45  107 1    
    91   46   47 1    
    92   46  108 1    
    93   46  109 1    
    94   47   48 1    
    95   48  110 1    
    96   48  111 1    
    97   49   50 am   BACKBONE|DICT|INTERRES
    98   49  112 1    
    99   50   51 2    
   100   50   52 1    
   101   52   53 1    
   102   52   54 1    
   103   52  113 1    
   104   53  114 1    
   105   53  115 1    
   106   53  116 1    
   107   54   55 am   BACKBONE|DICT|INTERRES
   108   54  117 1    
   109   55   56 2    
   110   55   57 1    
   111   57   58 1    
   112   57   59 1    
   113   57  118 1    
   114   58  119 1    
   115   58  120 1    
   116   58  121 1    
   117   59   60 am   BACKBONE|DICT|INTERRES
   118   59  122 1    
   119   60   61 2    
   120   60   62 1    
   121   62   63 1    
   122   62   64 1    
   123   62  123 1    
   124   63  124 1    
   125   63  125 1    
   126   63  126 1    
   127   64   65 am   BACKBONE|DICT|INTERRES
   128   64  127 1    
   129   65   66 2    
@<TRIPOS>SUBSTRUCTURE
     1 UNK         1 GROUP             0       ****    0 ROOT    
