@<TRIPOS>MOLECULE
3R134
127   129    1
SMALL
USER_CHARGES


@<TRIPOS>ATOM
      1 CA         32.8775  -47.2851  -57.8119 C.3       0 UNK        -0.1968 
      2 C          33.1352  -47.0390  -56.3343 C.2       0 UNK         0.4852 
      3 O          32.8982  -47.9283  -55.5159 O.2       0 UNK        -0.5359 
      4 N          33.6390  -45.8473  -55.9867 N.am      1 UNK        -0.4300 
      5 CA         33.9050  -45.3864  -54.6149 C.3       1 UNK         0.0863 
      6 C6         34.4106  -43.9206  -54.5945 C.3       11 UNK        -0.0953 
      7 S7         33.2839  -42.7415  -55.4129 S.3       11 UNK        -0.2369 
      8 C8         32.5072  -41.9211  -53.9860 C.3       11 UNK         0.0226 
      9 C9         31.4156  -42.7882  -53.3803 C.ar      11 UNK        -0.0699 
     10 C10        31.7030  -43.6618  -52.3294 C.ar      11 UNK        -0.0804 
     11 C11        30.7012  -44.4726  -51.7919 C.ar      11 UNK        -0.0871 
     12 C12        29.4001  -44.3838  -52.2994 C.ar      11 UNK        -0.1008 
     13 C13        29.0977  -43.5336  -53.3675 C.ar      11 UNK        -0.0735 
     14 C14        30.1165  -42.7253  -53.8900 C.ar      11 UNK        -0.0945 
     15 C15        27.6702  -43.5611  -53.9272 C.3       11 UNK         0.0169 
     16 S16        27.2447  -42.2673  -55.1448 S.3       11 UNK        -0.2669 
     17 C17        28.1816  -42.7900  -56.6250 C.3       11 UNK        -0.0850 
     18 CA         27.2588  -43.1176  -57.8272 C.3       10 UNK         0.0855 
     19 C          28.0517  -43.1195  -59.1701 C.2       10 UNK         0.5543 
     20 N          28.0199  -44.1696  -59.9813 N.am      10 UNK        -0.7343 
     21 O          28.7068  -42.1313  -59.4920 O.2       10 UNK        -0.5027 
     22 N          26.4676  -44.3347  -57.5835 N.am      10 UNK        -0.4495 
     23 C          25.2831  -44.5979  -58.1498 C.2       10 UNK         0.4903 
     24 O          24.6706  -43.7967  -58.8580 O.2       10 UNK        -0.4860 
     25 CA         24.7007  -46.0041  -57.8929 C.3       9 UNK         0.0227 
     26 CB         23.5656  -46.3688  -58.8726 C.3       9 UNK        -0.1964 
     27 N          25.7178  -47.0655  -57.8743 N.am      9 UNK        -0.4231 
     28 C          26.6051  -47.3608  -58.8403 C.2       9 UNK         0.5014 
     29 O          26.6770  -46.7499  -59.9069 O.2       9 UNK        -0.5270 
     30 CA         27.6102  -48.4974  -58.5778 C.3       8 UNK         0.0284 
     31 CB         29.0422  -47.9430  -58.4944 C.3       8 UNK        -0.1977 
     32 N          27.3109  -49.2432  -57.3541 N.am      8 UNK        -0.4342 
     33 C          26.4753  -50.2909  -57.2944 C.2       8 UNK         0.5039 
     34 O          25.9538  -50.8057  -58.2840 O.2       8 UNK        -0.5547 
     35 CA         26.1331  -50.8449  -55.8990 C.3       7 UNK         0.0281 
     36 CB         26.9455  -52.1164  -55.6054 C.3       7 UNK        -0.1963 
     37 N          26.3269  -49.8646  -54.8238 N.am      7 UNK        -0.4444 
     38 C          25.5629  -48.7718  -54.6636 C.2       7 UNK         0.5104 
     39 O          24.6110  -48.4987  -55.3940 O.2       7 UNK        -0.5100 
     40 CA         25.9458  -47.7800  -53.5513 C.3       6 UNK         0.0396 
     41 CB         25.1174  -48.0461  -52.2854 C.3       6 UNK        -0.1801 
     42 N          27.3690  -47.7904  -53.2099 N.am      6 UNK        -0.4747 
     43 C          28.3692  -47.4717  -54.0445 C.2       6 UNK         0.5012 
     44 O          28.1885  -47.1363  -55.2172 O.2       6 UNK        -0.5003 
     45 CA         29.8121  -47.5865  -53.5029 C.3       5 UNK         0.0782 
     46 C46        29.9084  -47.7012  -51.9520 C.3       11 UNK        -0.0868 
     47 S47        31.5108  -47.0890  -51.3380 S.3       11 UNK        -0.2515 
     48 C48        31.0353  -45.4551  -50.6772 C.3       11 UNK         0.0199 
     49 N          30.5326  -48.6718  -54.1763 N.am      5 UNK        -0.4607 
     50 C          30.1455  -49.9519  -54.2636 C.2       4 UNK         0.5031 
     51 O          29.0918  -50.3908  -53.7996 O.2       4 UNK        -0.5119 
     52 CA         31.1033  -50.9088  -54.9867 C.3       4 UNK         0.0263 
     53 CB         30.9746  -50.7606  -56.5115 C.3       4 UNK        -0.1967 
     54 N          32.5026  -50.7302  -54.5877 N.am      4 UNK        -0.4237 
     55 C          32.9819  -51.0204  -53.3696 C.2       3 UNK         0.4908 
     56 O          32.2877  -51.4295  -52.4383 O.2       3 UNK        -0.5102 
     57 CA         34.4942  -50.8905  -53.1603 C.3       3 UNK         0.0241 
     58 CB         35.2182  -52.1082  -53.7736 C.3       3 UNK        -0.1971 
     59 N          35.0508  -49.6342  -53.6771 N.am      3 UNK        -0.4139 
     60 C          36.2533  -49.1636  -53.3087 C.2       2 UNK         0.5016 
     61 O          36.9713  -49.7138  -52.4715 O.2       2 UNK        -0.5319 
     62 CA         36.7821  -47.8868  -53.9857 C.3       2 UNK         0.0286 
     63 CB         37.7803  -48.2491  -55.0980 C.3       2 UNK        -0.1963 
     64 N          35.7442  -47.0243  -54.5469 N.am      2 UNK        -0.4790 
     65 C          34.8981  -46.2726  -53.8292 C.2       1 UNK         0.5024 
     66 O          34.8980  -46.2381  -52.5987 O.2       1 UNK        -0.4888 
     67 H67        33.3295  -46.5157  -58.4375 H         1 UNK         0.0892 
     68 H68        33.2886  -48.2489  -58.1106 H         1 UNK         0.0892 
     69 H69        31.8066  -47.2949  -58.0053 H         1 UNK         0.0892 
     70 H70        33.8062  -45.1560  -56.7043 H         1 UNK         0.3107 
     71 H71        32.9556  -45.4368  -54.0790 H         1 UNK         0.0773 
     72 H72        34.5881  -43.5880  -53.5702 H         1 UNK         0.0680 
     73 H73        35.3766  -43.8494  -55.0983 H         1 UNK         0.0680 
     74 H74        32.0807  -40.9736  -54.3187 H         1 UNK         0.0650 
     75 H75        33.2608  -41.6661  -53.2395 H         1 UNK         0.0650 
     76 H76        32.7108  -43.7258  -51.9421 H         1 UNK         0.1397 
     77 H77        28.6169  -44.9985  -51.8792 H         1 UNK         0.1363 
     78 H78        29.9219  -42.0463  -54.7054 H         1 UNK         0.1355 
     79 H79        26.9703  -43.4695  -53.0952 H         1 UNK         0.0707 
     80 H80        27.4824  -44.5364  -54.3773 H         1 UNK         0.0707 
     81 H81        28.8565  -41.9676  -56.8705 H         1 UNK         0.1034 
     82 H82        28.8224  -43.6428  -56.3927 H         1 UNK         0.1034 
     83 H83        26.5590  -42.2851  -57.9243 H         1 UNK         0.0482 
     84 H84        27.4589  -44.9902  -59.7757 H         1 UNK         0.3460 
     85 H85        28.5393  -44.1313  -60.8433 H         1 UNK         0.3460 
     86 H86        26.9084  -45.0524  -57.0272 H         1 UNK         0.2989 
     87 H87        24.2736  -45.9756  -56.8894 H         1 UNK         0.0559 
     88 H88        22.7454  -45.6527  -58.8081 H         1 UNK         0.0848 
     89 H89        23.1521  -47.3526  -58.6506 H         1 UNK         0.0848 
     90 H90        23.9117  -46.3756  -59.9068 H         1 UNK         0.0848 
     91 H91        25.7127  -47.6425  -57.0421 H         1 UNK         0.3144 
     92 H92        27.5637  -49.1718  -59.4356 H         1 UNK         0.0727 
     93 H93        29.1698  -47.2614  -57.6534 H         1 UNK         0.0790 
     94 H94        29.3026  -47.3921  -59.3994 H         1 UNK         0.0790 
     95 H95        29.7684  -48.7480  -58.3923 H         1 UNK         0.0790 
     96 H96        27.6783  -48.8564  -56.4922 H         1 UNK         0.3215 
     97 H97        25.0757  -51.1187  -55.9103 H         1 UNK         0.0863 
     98 H98        26.7130  -52.5204  -54.6200 H         1 UNK         0.0808 
     99 H99        28.0187  -51.9339  -55.6495 H         1 UNK         0.0808 
    100 H100       26.7220  -52.8952  -56.3357 H         1 UNK         0.0808 
    101 H101       27.1313  -50.0022  -54.2179 H         1 UNK         0.3118 
    102 H102       25.7031  -46.7781  -53.9120 H         1 UNK         0.0546 
    103 H103       25.3342  -49.0262  -51.8585 H         1 UNK         0.0828 
    104 H104       24.0491  -48.0162  -52.5051 H         1 UNK         0.0828 
    105 H105       25.3085  -47.2946  -51.5192 H         1 UNK         0.0828 
    106 H106       27.6040  -48.1135  -52.2825 H         1 UNK         0.3005 
    107 H107       30.2991  -46.6604  -53.8140 H         1 UNK         0.1257 
    108 H108       29.1260  -47.1434  -51.4387 H         1 UNK         0.0775 
    109 H109       29.7872  -48.7359  -51.6265 H         1 UNK         0.0775 
    110 H110       30.1924  -45.5590  -49.9922 H         1 UNK         0.0840 
    111 H111       31.8612  -45.0685  -50.0781 H         1 UNK         0.0840 
    112 H112       31.4140  -48.4108  -54.6167 H         1 UNK         0.2987 
    113 H113       30.8078  -51.9264  -54.7219 H         1 UNK         0.0785 
    114 H114       29.9387  -50.8750  -56.8328 H         1 UNK         0.0798 
    115 H115       31.5594  -51.5180  -57.0334 H         1 UNK         0.0798 
    116 H116       31.3155  -49.7826  -56.8509 H         1 UNK         0.0798 
    117 H117       33.1277  -50.3712  -55.2945 H         1 UNK         0.3079 
    118 H118       34.6554  -50.9087  -52.0798 H         1 UNK         0.0794 
    119 H119       36.2693  -52.1392  -53.4872 H         1 UNK         0.0786 
    120 H120       35.1701  -52.0993  -54.8630 H         1 UNK         0.0786 
    121 H121       34.7699  -53.0432  -53.4342 H         1 UNK         0.0786 
    122 H122       34.4759  -49.0844  -54.3053 H         1 UNK         0.3032 
    123 H123       37.3164  -47.3183  -53.2207 H         1 UNK         0.1094 
    124 H124       37.3025  -48.8081  -55.9037 H         1 UNK         0.0794 
    125 H125       38.2359  -47.3577  -55.5297 H         1 UNK         0.0794 
    126 H126       38.5907  -48.8676  -54.7094 H         1 UNK         0.0794 
    127 H127       35.6720  -46.9894  -55.5534 H         1 UNK         0.3016 
@<TRIPOS>BOND
     1    1    2 1    
     2    1   67 1    
     3    1   68 1    
     4    1   69 1    
     5    2    3 2    
     6    2    4 am   BACKBONE|DICT|INTERRES
     7    4    5 1    
     8    4   70 1    
     9    5    6 1    
    10    5   65 1    
    11    5   71 1    
    12    6    7 1    
    13    6   72 1    
    14    6   73 1    
    15    7    8 1    
    16    8    9 1    
    17    8   74 1    
    18    8   75 1    
    19    9   10 ar   
    20    9   14 ar   
    21   10   11 ar   
    22   10   76 1    
    23   11   12 ar   
    24   11   48 1    
    25   12   13 ar   
    26   12   77 1    
    27   13   14 ar   
    28   13   15 1    
    29   14   78 1    
    30   15   16 1    
    31   15   79 1    
    32   15   80 1    
    33   16   17 1    
    34   17   18 1    
    35   17   81 1    
    36   17   82 1    
    37   18   19 1    
    38   18   22 1    
    39   18   83 1    
    40   19   20 am   BACKBONE|DICT|INTERRES
    41   19   21 2    
    42   20   84 1    
    43   20   85 1    
    44   22   23 am   BACKBONE|DICT|INTERRES
    45   22   86 1    
    46   23   24 2    
    47   23   25 1    
    48   25   26 1    
    49   25   27 1    
    50   25   87 1    
    51   26   88 1    
    52   26   89 1    
    53   26   90 1    
    54   27   28 am   BACKBONE|DICT|INTERRES
    55   27   91 1    
    56   28   29 2    
    57   28   30 1    
    58   30   31 1    
    59   30   32 1    
    60   30   92 1    
    61   31   93 1    
    62   31   94 1    
    63   31   95 1    
    64   32   33 am   BACKBONE|DICT|INTERRES
    65   32   96 1    
    66   33   34 2    
    67   33   35 1    
    68   35   36 1    
    69   35   37 1    
    70   35   97 1    
    71   36   98 1    
    72   36   99 1    
    73   36  100 1    
    74   37   38 am   BACKBONE|DICT|INTERRES
    75   37  101 1    
    76   38   39 2    
    77   38   40 1    
    78   40   41 1    
    79   40   42 1    
    80   40  102 1    
    81   41  103 1    
    82   41  104 1    
    83   41  105 1    
    84   42   43 am   BACKBONE|DICT|INTERRES
    85   42  106 1    
    86   43   44 2    
    87   43   45 1    
    88   45   46 1    
    89   45   49 1    
    90   45  107 1    
    91   46   47 1    
    92   46  108 1    
    93   46  109 1    
    94   47   48 1    
    95   48  110 1    
    96   48  111 1    
    97   49   50 am   BACKBONE|DICT|INTERRES
    98   49  112 1    
    99   50   51 2    
   100   50   52 1    
   101   52   53 1    
   102   52   54 1    
   103   52  113 1    
   104   53  114 1    
   105   53  115 1    
   106   53  116 1    
   107   54   55 am   BACKBONE|DICT|INTERRES
   108   54  117 1    
   109   55   56 2    
   110   55   57 1    
   111   57   58 1    
   112   57   59 1    
   113   57  118 1    
   114   58  119 1    
   115   58  120 1    
   116   58  121 1    
   117   59   60 am   BACKBONE|DICT|INTERRES
   118   59  122 1    
   119   60   61 2    
   120   60   62 1    
   121   62   63 1    
   122   62   64 1    
   123   62  123 1    
   124   63  124 1    
   125   63  125 1    
   126   63  126 1    
   127   64   65 am   BACKBONE|DICT|INTERRES
   128   64  127 1    
   129   65   66 2    
@<TRIPOS>SUBSTRUCTURE
     1 UNK         1 GROUP             0       ****    0 ROOT    
