@<TRIPOS>MOLECULE
3R134
127   129    1
SMALL
USER_CHARGES


@<TRIPOS>ATOM
      1 CA         29.9103  -44.9375  -52.6997 C.3       0 UNK        -0.1968 
      2 C          31.1322  -45.1526  -51.8208 C.2       0 UNK         0.4852 
      3 O          31.0186  -45.7557  -50.7535 O.2       0 UNK        -0.5359 
      4 N          32.2984  -44.6593  -52.2583 N.am      1 UNK        -0.4300 
      5 CA         33.5626  -44.7149  -51.5100 C.3       1 UNK         0.0863 
      6 C6         34.5466  -43.6030  -51.9512 C.3       11 UNK        -0.0953 
      7 S7         33.8334  -41.9308  -51.7820 S.3       11 UNK        -0.2369 
      8 C8         34.0192  -41.2615  -53.4643 C.3       11 UNK         0.0226 
      9 C9         33.0471  -41.8899  -54.4531 C.ar      11 UNK        -0.0699 
     10 C10        33.4750  -42.9072  -55.3137 C.ar      11 UNK        -0.0804 
     11 C11        32.5948  -43.4594  -56.2477 C.ar      11 UNK        -0.0871 
     12 C12        31.2930  -42.9661  -56.3372 C.ar      11 UNK        -0.1008 
     13 C13        30.8452  -41.9649  -55.4751 C.ar      11 UNK        -0.0735 
     14 C14        31.7268  -41.4297  -54.5304 C.ar      11 UNK        -0.0945 
     15 C15        29.4172  -41.4563  -55.6009 C.3       11 UNK         0.0169 
     16 S16        28.2020  -42.7427  -55.1533 S.3       11 UNK        -0.2669 
     17 C17        26.9240  -42.5160  -56.4437 C.3       11 UNK        -0.0850 
     18 CA         26.8439  -43.6674  -57.4887 C.3       10 UNK         0.0855 
     19 C          28.1308  -43.8527  -58.3352 C.2       10 UNK         0.5543 
     20 N          28.5141  -42.8441  -59.1061 N.am      10 UNK        -0.7343 
     21 O          28.7876  -44.8919  -58.3031 O.2       10 UNK        -0.5027 
     22 N          26.3989  -44.9356  -56.9022 N.am      10 UNK        -0.4495 
     23 C          25.1272  -45.2516  -56.6360 C.2       10 UNK         0.4903 
     24 O          24.1843  -44.4701  -56.7764 O.2       10 UNK        -0.4860 
     25 CA         24.8717  -46.6884  -56.1459 C.3       9 UNK         0.0227 
     26 CB         23.3758  -47.0642  -56.0966 C.3       9 UNK        -0.1964 
     27 N          25.6389  -47.6765  -56.9094 N.am      9 UNK        -0.4231 
     28 C          25.5639  -47.9624  -58.2179 C.2       9 UNK         0.5014 
     29 O          24.7592  -47.4483  -58.9960 O.2       9 UNK        -0.5270 
     30 CA         26.5700  -48.9973  -58.7598 C.3       8 UNK         0.0284 
     31 CB         27.7536  -48.2856  -59.4350 C.3       8 UNK        -0.1977 
     32 N          27.0794  -49.9096  -57.7299 N.am      8 UNK        -0.4342 
     33 C          26.3481  -50.8592  -57.1280 C.2       8 UNK         0.5039 
     34 O          25.1921  -51.1392  -57.4480 O.2       8 UNK        -0.5547 
     35 CA         27.0013  -51.5978  -55.9476 C.3       7 UNK         0.0281 
     36 CB         27.9074  -52.7336  -56.4488 C.3       7 UNK        -0.1963 
     37 N          27.7601  -50.7019  -55.0688 N.am      7 UNK        -0.4444 
     38 C          27.2193  -49.7260  -54.3234 C.2       7 UNK         0.5104 
     39 O          26.0099  -49.5137  -54.2457 O.2       7 UNK        -0.5100 
     40 CA         28.1881  -48.7974  -53.5719 C.3       6 UNK         0.0396 
     41 CB         28.6391  -49.4248  -52.2446 C.3       6 UNK        -0.1801 
     42 N          29.3611  -48.4426  -54.3704 N.am      6 UNK        -0.4747 
     43 C          29.3345  -47.7091  -55.4932 C.2       6 UNK         0.5012 
     44 O          28.3141  -47.2001  -55.9545 O.2       6 UNK        -0.5003 
     45 CA         30.6764  -47.5413  -56.2301 C.3       5 UNK         0.0782 
     46 C46        31.4904  -46.4035  -55.5739 C.3       11 UNK        -0.0868 
     47 S47        33.1670  -46.1776  -56.2629 S.3       11 UNK        -0.2515 
     48 C48        33.0329  -44.5970  -57.1587 C.3       11 UNK         0.0199 
     49 N          31.4131  -48.8065  -56.2722 N.am      5 UNK        -0.4607 
     50 C          31.0241  -49.8995  -56.9400 C.2       4 UNK         0.5031 
     51 O          30.0024  -49.9582  -57.6236 O.2       4 UNK        -0.5119 
     52 CA         31.9048  -51.1496  -56.7783 C.3       4 UNK         0.0263 
     53 CB         33.1086  -51.0899  -57.7318 C.3       4 UNK        -0.1967 
     54 N          32.3742  -51.3311  -55.4011 N.am      4 UNK        -0.4237 
     55 C          31.5706  -51.5986  -54.3613 C.2       3 UNK         0.4908 
     56 O          30.3568  -51.7702  -54.4625 O.2       3 UNK        -0.5102 
     57 CA         32.2184  -51.6359  -52.9666 C.3       3 UNK         0.0241 
     58 CB         32.8112  -53.0255  -52.6838 C.3       3 UNK        -0.1971 
     59 N          33.2445  -50.6075  -52.7553 N.am      3 UNK        -0.4139 
     60 C          33.0375  -49.2874  -52.8576 C.2       2 UNK         0.5016 
     61 O          31.9620  -48.7850  -53.1949 O.2       2 UNK        -0.5319 
     62 CA         34.2388  -48.3808  -52.5671 C.3       2 UNK         0.0286 
     63 CB         35.2693  -48.4395  -53.7088 C.3       2 UNK        -0.1963 
     64 N          33.7631  -47.0085  -52.4148 N.am      2 UNK        -0.4790 
     65 C          34.2493  -46.0995  -51.5623 C.2       1 UNK         0.5024 
     66 O          35.2147  -46.3160  -50.8279 O.2       1 UNK        -0.4888 
     67 H67        29.1632  -44.3496  -52.1674 H         1 UNK         0.0892 
     68 H68        30.1609  -44.4074  -53.6177 H         1 UNK         0.0892 
     69 H69        29.4627  -45.8939  -52.9662 H         1 UNK         0.0892 
     70 H70        32.3332  -44.1456  -53.1284 H         1 UNK         0.3107 
     71 H71        33.3295  -44.5378  -50.4576 H         1 UNK         0.0773 
     72 H72        34.8789  -43.7697  -52.9761 H         1 UNK         0.0680 
     73 H73        35.4493  -43.6285  -51.3377 H         1 UNK         0.0680 
     74 H74        35.0500  -41.3943  -53.7967 H         1 UNK         0.0650 
     75 H75        33.8510  -40.1842  -53.4296 H         1 UNK         0.0650 
     76 H76        34.4910  -43.2736  -55.2595 H         1 UNK         0.1397 
     77 H77        30.6136  -43.3824  -57.0660 H         1 UNK         0.1363 
     78 H78        31.3936  -40.6447  -53.8651 H         1 UNK         0.1355 
     79 H79        29.2670  -41.1270  -56.6297 H         1 UNK         0.0707 
     80 H80        29.2553  -40.5808  -54.9704 H         1 UNK         0.0707 
     81 H81        25.9619  -42.4202  -55.9385 H         1 UNK         0.1034 
     82 H82        27.0645  -41.5593  -56.9478 H         1 UNK         0.1034 
     83 H83        26.0823  -43.3853  -58.2187 H         1 UNK         0.0482 
     84 H84        29.3437  -42.9498  -59.6680 H         1 UNK         0.3460 
     85 H85        27.9799  -41.9915  -59.1611 H         1 UNK         0.3460 
     86 H86        27.1290  -45.6316  -56.7776 H         1 UNK         0.2989 
     87 H87        25.2561  -46.7343  -55.1259 H         1 UNK         0.0559 
     88 H88        22.8285  -46.3999  -55.4269 H         1 UNK         0.0848 
     89 H89        23.2367  -48.0810  -55.7290 H         1 UNK         0.0848 
     90 H90        22.9062  -46.9944  -57.0782 H         1 UNK         0.0848 
     91 H91        26.3985  -48.1065  -56.3957 H         1 UNK         0.3144 
     92 H92        26.0536  -49.5935  -59.5149 H         1 UNK         0.0727 
     93 H93        28.3178  -47.6802  -58.7246 H         1 UNK         0.0790 
     94 H94        27.4101  -47.6194  -60.2275 H         1 UNK         0.0790 
     95 H95        28.4423  -49.0000  -59.8864 H         1 UNK         0.0790 
     96 H96        28.0572  -49.8054  -57.4691 H         1 UNK         0.3215 
     97 H97        26.1998  -52.0420  -55.3533 H         1 UNK         0.0863 
     98 H98        28.3078  -53.3161  -55.6189 H         1 UNK         0.0808 
     99 H99        28.7498  -52.3544  -57.0276 H         1 UNK         0.0808 
    100 H100       27.3535  -53.4209  -57.0896 H         1 UNK         0.0808 
    101 H101       28.7627  -50.8627  -55.0070 H         1 UNK         0.3118 
    102 H102       27.6531  -47.8732  -53.3435 H         1 UNK         0.0546 
    103 H103       29.1800  -50.3580  -52.4016 H         1 UNK         0.0828 
    104 H104       27.7821  -49.6473  -51.6077 H         1 UNK         0.0828 
    105 H105       29.2916  -48.7503  -51.6893 H         1 UNK         0.0828 
    106 H106       30.2637  -48.7709  -54.0318 H         1 UNK         0.3005 
    107 H107       30.4496  -47.2512  -57.2590 H         1 UNK         0.1257 
    108 H108       30.9239  -45.4775  -55.6481 H         1 UNK         0.0775 
    109 H109       31.6138  -46.5866  -54.5076 H         1 UNK         0.0775 
    110 H110       34.0001  -44.3563  -57.6019 H         1 UNK         0.0840 
    111 H111       32.3372  -44.7191  -57.9907 H         1 UNK         0.0840 
    112 H112       32.2447  -48.8502  -55.7027 H         1 UNK         0.2987 
    113 H113       31.2996  -52.0185  -57.0455 H         1 UNK         0.0785 
    114 H114       32.7801  -50.9723  -58.7655 H         1 UNK         0.0798 
    115 H115       33.6987  -52.0053  -57.6837 H         1 UNK         0.0798 
    116 H116       33.7680  -50.2516  -57.5025 H         1 UNK         0.0798 
    117 H117       33.3614  -51.2096  -55.2292 H         1 UNK         0.3079 
    118 H118       31.4254  -51.4530  -52.2387 H         1 UNK         0.0794 
    119 H119       33.1729  -53.1018  -51.6582 H         1 UNK         0.0786 
    120 H120       33.6420  -53.2563  -53.3518 H         1 UNK         0.0786 
    121 H121       32.0592  -53.8047  -52.8177 H         1 UNK         0.0786 
    122 H122       34.1596  -50.9355  -52.4810 H         1 UNK         0.3032 
    123 H123       34.6986  -48.7195  -51.6357 H         1 UNK         0.1094 
    124 H124       34.8310  -48.1488  -54.6639 H         1 UNK         0.0794 
    125 H125       36.1115  -47.7750  -53.5146 H         1 UNK         0.0794 
    126 H126       35.6750  -49.4448  -53.8271 H         1 UNK         0.0794 
    127 H127       32.9117  -46.8027  -52.9198 H         1 UNK         0.3016 
@<TRIPOS>BOND
     1    1    2 1    
     2    1   67 1    
     3    1   68 1    
     4    1   69 1    
     5    2    3 2    
     6    2    4 am   BACKBONE|DICT|INTERRES
     7    4    5 1    
     8    4   70 1    
     9    5    6 1    
    10    5   65 1    
    11    5   71 1    
    12    6    7 1    
    13    6   72 1    
    14    6   73 1    
    15    7    8 1    
    16    8    9 1    
    17    8   74 1    
    18    8   75 1    
    19    9   10 ar   
    20    9   14 ar   
    21   10   11 ar   
    22   10   76 1    
    23   11   12 ar   
    24   11   48 1    
    25   12   13 ar   
    26   12   77 1    
    27   13   14 ar   
    28   13   15 1    
    29   14   78 1    
    30   15   16 1    
    31   15   79 1    
    32   15   80 1    
    33   16   17 1    
    34   17   18 1    
    35   17   81 1    
    36   17   82 1    
    37   18   19 1    
    38   18   22 1    
    39   18   83 1    
    40   19   20 am   BACKBONE|DICT|INTERRES
    41   19   21 2    
    42   20   84 1    
    43   20   85 1    
    44   22   23 am   BACKBONE|DICT|INTERRES
    45   22   86 1    
    46   23   24 2    
    47   23   25 1    
    48   25   26 1    
    49   25   27 1    
    50   25   87 1    
    51   26   88 1    
    52   26   89 1    
    53   26   90 1    
    54   27   28 am   BACKBONE|DICT|INTERRES
    55   27   91 1    
    56   28   29 2    
    57   28   30 1    
    58   30   31 1    
    59   30   32 1    
    60   30   92 1    
    61   31   93 1    
    62   31   94 1    
    63   31   95 1    
    64   32   33 am   BACKBONE|DICT|INTERRES
    65   32   96 1    
    66   33   34 2    
    67   33   35 1    
    68   35   36 1    
    69   35   37 1    
    70   35   97 1    
    71   36   98 1    
    72   36   99 1    
    73   36  100 1    
    74   37   38 am   BACKBONE|DICT|INTERRES
    75   37  101 1    
    76   38   39 2    
    77   38   40 1    
    78   40   41 1    
    79   40   42 1    
    80   40  102 1    
    81   41  103 1    
    82   41  104 1    
    83   41  105 1    
    84   42   43 am   BACKBONE|DICT|INTERRES
    85   42  106 1    
    86   43   44 2    
    87   43   45 1    
    88   45   46 1    
    89   45   49 1    
    90   45  107 1    
    91   46   47 1    
    92   46  108 1    
    93   46  109 1    
    94   47   48 1    
    95   48  110 1    
    96   48  111 1    
    97   49   50 am   BACKBONE|DICT|INTERRES
    98   49  112 1    
    99   50   51 2    
   100   50   52 1    
   101   52   53 1    
   102   52   54 1    
   103   52  113 1    
   104   53  114 1    
   105   53  115 1    
   106   53  116 1    
   107   54   55 am   BACKBONE|DICT|INTERRES
   108   54  117 1    
   109   55   56 2    
   110   55   57 1    
   111   57   58 1    
   112   57   59 1    
   113   57  118 1    
   114   58  119 1    
   115   58  120 1    
   116   58  121 1    
   117   59   60 am   BACKBONE|DICT|INTERRES
   118   59  122 1    
   119   60   61 2    
   120   60   62 1    
   121   62   63 1    
   122   62   64 1    
   123   62  123 1    
   124   63  124 1    
   125   63  125 1    
   126   63  126 1    
   127   64   65 am   BACKBONE|DICT|INTERRES
   128   64  127 1    
   129   65   66 2    
@<TRIPOS>SUBSTRUCTURE
     1 UNK         1 GROUP             0       ****    0 ROOT    
