@<TRIPOS>MOLECULE
3R134
127   129    1
SMALL
USER_CHARGES


@<TRIPOS>ATOM
      1 CA         29.5763  -44.8132  -49.7288 C.3       0 UNK        -0.1968 
      2 C          30.9620  -45.3368  -49.3788 C.2       0 UNK         0.4852 
      3 O          31.1965  -45.7314  -48.2351 O.2       0 UNK        -0.5359 
      4 N          31.8792  -45.3321  -50.3535 N.am      1 UNK        -0.4300 
      5 CA         33.2379  -45.8691  -50.2402 C.3       1 UNK         0.0863 
      6 C6         34.2176  -45.1135  -51.1794 C.3       11 UNK        -0.0953 
      7 S7         33.8557  -45.3413  -52.9519 S.3       11 UNK        -0.2369 
      8 C8         33.1749  -43.7178  -53.4200 C.3       11 UNK         0.0226 
      9 C9         32.4018  -43.8072  -54.7286 C.ar      11 UNK        -0.0699 
     10 C10        33.0397  -44.2549  -55.8889 C.ar      11 UNK        -0.0804 
     11 C11        32.3279  -44.4014  -57.0812 C.ar      11 UNK        -0.0871 
     12 C12        30.9723  -44.0666  -57.1195 C.ar      11 UNK        -0.1008 
     13 C13        30.3244  -43.6019  -55.9712 C.ar      11 UNK        -0.0735 
     14 C14        31.0444  -43.4715  -54.7784 C.ar      11 UNK        -0.0945 
     15 C15        28.8308  -43.3152  -56.0058 C.3       11 UNK         0.0169 
     16 S16        28.4203  -41.9206  -57.1028 S.3       11 UNK        -0.2669 
     17 C17        26.6102  -41.7204  -56.8958 C.3       11 UNK        -0.0850 
     18 CA         25.7886  -43.0190  -56.6634 C.3       10 UNK         0.0855 
     19 C          24.2864  -42.6838  -56.4526 C.2       10 UNK         0.5543 
     20 N          23.8793  -42.4088  -55.2211 N.am      10 UNK        -0.7343 
     21 O          23.5009  -42.6266  -57.3972 O.2       10 UNK        -0.5027 
     22 N          25.9933  -43.9900  -57.7485 N.am      10 UNK        -0.4495 
     23 C          25.6739  -45.2880  -57.6785 C.2       10 UNK         0.4903 
     24 O          25.2218  -45.8224  -56.6640 O.2       10 UNK        -0.4860 
     25 CA         25.8733  -46.1311  -58.9504 C.3       9 UNK         0.0227 
     26 CB         26.9130  -45.5524  -59.9346 C.3       9 UNK        -0.1964 
     27 N          26.2670  -47.4868  -58.5688 N.am      9 UNK        -0.4231 
     28 C          25.7464  -48.6173  -59.0603 C.2       9 UNK         0.5014 
     29 O          24.8783  -48.6462  -59.9345 O.2       9 UNK        -0.5270 
     30 CA         26.2811  -49.9525  -58.5086 C.3       8 UNK         0.0284 
     31 CB         27.3455  -50.5396  -59.4499 C.3       8 UNK        -0.1977 
     32 N          26.8240  -49.8725  -57.1486 N.am      8 UNK        -0.4342 
     33 C          26.0725  -49.7582  -56.0432 C.2       8 UNK         0.5039 
     34 O          24.8450  -49.6599  -56.0571 O.2       8 UNK        -0.5547 
     35 CA         26.8068  -49.7768  -54.6944 C.3       7 UNK         0.0281 
     36 CB         27.1945  -51.2133  -54.3047 C.3       7 UNK        -0.1963 
     37 N          28.0053  -48.9409  -54.7361 N.am      7 UNK        -0.4444 
     38 C          28.0567  -47.6658  -54.3263 C.2       7 UNK         0.5104 
     39 O          27.1221  -47.0821  -53.7774 O.2       7 UNK        -0.5100 
     40 CA         29.3725  -46.9038  -54.5654 C.3       6 UNK         0.0396 
     41 CB         30.2152  -46.8697  -53.2833 C.3       6 UNK        -0.1801 
     42 N          30.1645  -47.4517  -55.6724 N.am      6 UNK        -0.4747 
     43 C          29.8007  -47.3532  -56.9620 C.2       6 UNK         0.5012 
     44 O          28.8020  -46.7373  -57.3294 O.2       6 UNK        -0.5003 
     45 CA         30.6042  -48.1359  -58.0231 C.3       5 UNK         0.0782 
     46 C46        31.4584  -47.2278  -58.9443 C.3       11 UNK        -0.0868 
     47 S47        33.0946  -46.7662  -58.2755 S.3       11 UNK        -0.2515 
     48 C48        33.0278  -44.9475  -58.3131 C.3       11 UNK         0.0199 
     49 N          31.3574  -49.2667  -57.4766 N.am      5 UNK        -0.4607 
     50 C          30.8088  -50.3394  -56.8931 C.2       4 UNK         0.5031 
     51 O          29.5922  -50.5103  -56.7993 O.2       4 UNK        -0.5119 
     52 CA         31.7715  -51.3592  -56.2604 C.3       4 UNK         0.0263 
     53 CB         32.0894  -52.4822  -57.2597 C.3       4 UNK        -0.1967 
     54 N          33.0248  -50.7728  -55.7633 N.am      4 UNK        -0.4237 
     55 C          33.1023  -49.8325  -54.8102 C.2       3 UNK         0.4908 
     56 O          32.1175  -49.3137  -54.2833 O.2       3 UNK        -0.5102 
     57 CA         34.5103  -49.3501  -54.4267 C.3       3 UNK         0.0241 
     58 CB         34.8901  -48.1121  -55.2552 C.3       3 UNK        -0.1971 
     59 N          34.6003  -49.0259  -52.9999 N.am      3 UNK        -0.4139 
     60 C          34.5911  -49.9370  -52.0156 C.2       2 UNK         0.5016 
     61 O          34.5448  -51.1518  -52.2184 O.2       2 UNK        -0.5319 
     62 CA         34.6848  -49.4360  -50.5594 C.3       2 UNK         0.0286 
     63 CB         36.0563  -49.7891  -49.9584 C.3       2 UNK        -0.1963 
     64 N          34.4569  -47.9963  -50.3925 N.am      2 UNK        -0.4790 
     65 C          33.2556  -47.4048  -50.4440 C.2       1 UNK         0.5024 
     66 O          32.2099  -48.0258  -50.6490 O.2       1 UNK        -0.4888 
     67 H67        29.5406  -44.3890  -50.7321 H         1 UNK         0.0892 
     68 H68        28.8467  -45.6208  -49.6747 H         1 UNK         0.0892 
     69 H69        29.2788  -44.0368  -49.0244 H         1 UNK         0.0892 
     70 H70        31.6168  -45.0371  -51.2815 H         1 UNK         0.3107 
     71 H71        33.5827  -45.6971  -49.2182 H         1 UNK         0.0773 
     72 H72        34.2066  -44.0485  -50.9423 H         1 UNK         0.0680 
     73 H73        35.2460  -45.4309  -51.0014 H         1 UNK         0.0680 
     74 H74        33.9898  -43.0003  -53.5242 H         1 UNK         0.0650 
     75 H75        32.5309  -43.3488  -52.6206 H         1 UNK         0.0650 
     76 H76        34.0861  -44.5260  -55.8529 H         1 UNK         0.1397 
     77 H77        30.4091  -44.1902  -58.0343 H         1 UNK         0.1363 
     78 H78        30.5414  -43.1324  -53.8834 H         1 UNK         0.1355 
     79 H79        28.4544  -43.1065  -55.0033 H         1 UNK         0.0707 
     80 H80        28.3241  -44.2156  -56.3523 H         1 UNK         0.0707 
     81 H81        26.4597  -41.0349  -56.0594 H         1 UNK         0.1034 
     82 H82        26.2355  -41.1936  -57.7756 H         1 UNK         0.1034 
     83 H83        26.1368  -43.4836  -55.7394 H         1 UNK         0.0482 
     84 H84        24.5149  -42.4446  -54.4394 H         1 UNK         0.3460 
     85 H85        22.9112  -42.1729  -55.0670 H         1 UNK         0.3460 
     86 H86        26.3452  -43.6177  -58.6173 H         1 UNK         0.2989 
     87 H87        24.9038  -46.1540  -59.4517 H         1 UNK         0.0559 
     88 H88        27.8784  -45.3865  -59.4547 H         1 UNK         0.0848 
     89 H89        26.5810  -44.6027  -60.3549 H         1 UNK         0.0848 
     90 H90        27.0751  -46.2272  -60.7752 H         1 UNK         0.0848 
     91 H91        26.9696  -47.5338  -57.8384 H         1 UNK         0.3144 
     92 H92        25.4402  -50.6493  -58.4877 H         1 UNK         0.0727 
     93 H93        27.7076  -51.5033  -59.0908 H         1 UNK         0.0790 
     94 H94        28.2032  -49.8777  -59.5574 H         1 UNK         0.0790 
     95 H95        26.9347  -50.6999  -60.4477 H         1 UNK         0.0790 
     96 H96        27.8253  -50.0243  -57.0442 H         1 UNK         0.3215 
     97 H97        26.1179  -49.4008  -53.9345 H         1 UNK         0.0863 
     98 H98        27.6715  -51.2411  -53.3250 H         1 UNK         0.0808 
     99 H99        27.8810  -51.6626  -55.0231 H         1 UNK         0.0808 
    100 H100       26.3125  -51.8532  -54.2535 H         1 UNK         0.0808 
    101 H101       28.8194  -49.3335  -55.1929 H         1 UNK         0.3118 
    102 H102       29.1094  -45.8765  -54.8144 H         1 UNK         0.0546 
    103 H103       29.6858  -46.3490  -52.4854 H         1 UNK         0.0828 
    104 H104       31.1584  -46.3513  -53.4456 H         1 UNK         0.0828 
    105 H105       30.4418  -47.8715  -52.9176 H         1 UNK         0.0828 
    106 H106       30.9763  -48.0057  -55.4181 H         1 UNK         0.3005 
    107 H107       29.8394  -48.5715  -58.6673 H         1 UNK         0.1257 
    108 H108       30.8995  -46.3361  -59.2338 H         1 UNK         0.0775 
    109 H109       31.6461  -47.7573  -59.8796 H         1 UNK         0.0775 
    110 H110       34.0475  -44.5612  -58.3527 H         1 UNK         0.0840 
    111 H111       32.5408  -44.6035  -59.2269 H         1 UNK         0.0840 
    112 H112       32.3630  -49.1790  -57.4983 H         1 UNK         0.2987 
    113 H113       31.2544  -51.7987  -55.4048 H         1 UNK         0.0785 
    114 H114       31.1735  -52.9478  -57.6270 H         1 UNK         0.0798 
    115 H115       32.6862  -53.2687  -56.7975 H         1 UNK         0.0798 
    116 H116       32.6358  -52.1096  -58.1271 H         1 UNK         0.0798 
    117 H117       33.8805  -51.1360  -56.1587 H         1 UNK         0.3079 
    118 H118       35.2295  -50.1445  -54.6380 H         1 UNK         0.0794 
    119 H119       34.1486  -47.3177  -55.1588 H         1 UNK         0.0786 
    120 H120       34.9595  -48.3598  -56.3149 H         1 UNK         0.0786 
    121 H121       35.8570  -47.7084  -54.9546 H         1 UNK         0.0786 
    122 H122       34.5865  -48.0476  -52.7509 H         1 UNK         0.3032 
    123 H123       33.9189  -49.9720  -49.9936 H         1 UNK         0.1094 
    124 H124       36.8687  -49.2809  -50.4794 H         1 UNK         0.0794 
    125 H125       36.1101  -49.5182  -48.9037 H         1 UNK         0.0794 
    126 H126       36.2485  -50.8611  -50.0237 H         1 UNK         0.0794 
    127 H127       35.2750  -47.4281  -50.2233 H         1 UNK         0.3016 
@<TRIPOS>BOND
     1    1    2 1    
     2    1   67 1    
     3    1   68 1    
     4    1   69 1    
     5    2    3 2    
     6    2    4 am   BACKBONE|DICT|INTERRES
     7    4    5 1    
     8    4   70 1    
     9    5    6 1    
    10    5   65 1    
    11    5   71 1    
    12    6    7 1    
    13    6   72 1    
    14    6   73 1    
    15    7    8 1    
    16    8    9 1    
    17    8   74 1    
    18    8   75 1    
    19    9   10 ar   
    20    9   14 ar   
    21   10   11 ar   
    22   10   76 1    
    23   11   12 ar   
    24   11   48 1    
    25   12   13 ar   
    26   12   77 1    
    27   13   14 ar   
    28   13   15 1    
    29   14   78 1    
    30   15   16 1    
    31   15   79 1    
    32   15   80 1    
    33   16   17 1    
    34   17   18 1    
    35   17   81 1    
    36   17   82 1    
    37   18   19 1    
    38   18   22 1    
    39   18   83 1    
    40   19   20 am   BACKBONE|DICT|INTERRES
    41   19   21 2    
    42   20   84 1    
    43   20   85 1    
    44   22   23 am   BACKBONE|DICT|INTERRES
    45   22   86 1    
    46   23   24 2    
    47   23   25 1    
    48   25   26 1    
    49   25   27 1    
    50   25   87 1    
    51   26   88 1    
    52   26   89 1    
    53   26   90 1    
    54   27   28 am   BACKBONE|DICT|INTERRES
    55   27   91 1    
    56   28   29 2    
    57   28   30 1    
    58   30   31 1    
    59   30   32 1    
    60   30   92 1    
    61   31   93 1    
    62   31   94 1    
    63   31   95 1    
    64   32   33 am   BACKBONE|DICT|INTERRES
    65   32   96 1    
    66   33   34 2    
    67   33   35 1    
    68   35   36 1    
    69   35   37 1    
    70   35   97 1    
    71   36   98 1    
    72   36   99 1    
    73   36  100 1    
    74   37   38 am   BACKBONE|DICT|INTERRES
    75   37  101 1    
    76   38   39 2    
    77   38   40 1    
    78   40   41 1    
    79   40   42 1    
    80   40  102 1    
    81   41  103 1    
    82   41  104 1    
    83   41  105 1    
    84   42   43 am   BACKBONE|DICT|INTERRES
    85   42  106 1    
    86   43   44 2    
    87   43   45 1    
    88   45   46 1    
    89   45   49 1    
    90   45  107 1    
    91   46   47 1    
    92   46  108 1    
    93   46  109 1    
    94   47   48 1    
    95   48  110 1    
    96   48  111 1    
    97   49   50 am   BACKBONE|DICT|INTERRES
    98   49  112 1    
    99   50   51 2    
   100   50   52 1    
   101   52   53 1    
   102   52   54 1    
   103   52  113 1    
   104   53  114 1    
   105   53  115 1    
   106   53  116 1    
   107   54   55 am   BACKBONE|DICT|INTERRES
   108   54  117 1    
   109   55   56 2    
   110   55   57 1    
   111   57   58 1    
   112   57   59 1    
   113   57  118 1    
   114   58  119 1    
   115   58  120 1    
   116   58  121 1    
   117   59   60 am   BACKBONE|DICT|INTERRES
   118   59  122 1    
   119   60   61 2    
   120   60   62 1    
   121   62   63 1    
   122   62   64 1    
   123   62  123 1    
   124   63  124 1    
   125   63  125 1    
   126   63  126 1    
   127   64   65 am   BACKBONE|DICT|INTERRES
   128   64  127 1    
   129   65   66 2    
@<TRIPOS>SUBSTRUCTURE
     1 UNK         1 GROUP             0       ****    0 ROOT    
