@<TRIPOS>MOLECULE
3R134
127   129    1
SMALL
USER_CHARGES


@<TRIPOS>ATOM
      1 CA         31.7949  -46.5877  -54.9013 C.3       0 UNK        -0.1968 
      2 C          32.9379  -46.6475  -53.9067 C.2       0 UNK         0.4852 
      3 O          33.0696  -47.6317  -53.1823 O.2       0 UNK        -0.5359 
      4 N          33.7994  -45.6245  -53.9004 N.am      1 UNK        -0.4300 
      5 CA         34.9940  -45.5293  -53.0519 C.3       1 UNK         0.0863 
      6 C6         35.6384  -44.1258  -53.1576 C.3       11 UNK        -0.0953 
      7 S7         34.6795  -42.8509  -52.2722 S.3       11 UNK        -0.2369 
      8 C8         33.6426  -42.0998  -53.5764 C.3       11 UNK         0.0226 
      9 C9         32.2420  -42.7036  -53.6820 C.ar      11 UNK        -0.0699 
     10 C10        31.4932  -42.9930  -52.5348 C.ar      11 UNK        -0.0804 
     11 C11        30.1896  -43.4890  -52.6341 C.ar      11 UNK        -0.0871 
     12 C12        29.6260  -43.6923  -53.8965 C.ar      11 UNK        -0.1008 
     13 C13        30.3608  -43.4104  -55.0520 C.ar      11 UNK        -0.0735 
     14 C14        31.6649  -42.9148  -54.9390 C.ar      11 UNK        -0.0945 
     15 C15        29.7497  -43.6494  -56.4231 C.3       11 UNK         0.0169 
     16 S16        28.7338  -42.2366  -56.9513 S.3       11 UNK        -0.2669 
     17 C17        28.4599  -42.6378  -58.7115 C.3       11 UNK        -0.0850 
     18 CA         27.0115  -43.0904  -59.0349 C.3       10 UNK         0.0855 
     19 C          26.8435  -43.2607  -60.5751 C.2       10 UNK         0.5543 
     20 N          26.7551  -44.4750  -61.1074 N.am      10 UNK        -0.7343 
     21 O          26.7957  -42.2683  -61.2975 O.2       10 UNK        -0.5027 
     22 N          26.6155  -44.2706  -58.2501 N.am      10 UNK        -0.4495 
     23 C          25.3714  -44.7620  -58.1729 C.2       10 UNK         0.4903 
     24 O          24.3822  -44.1757  -58.6154 O.2       10 UNK        -0.4860 
     25 CA         25.1990  -46.1415  -57.4992 C.3       9 UNK         0.0227 
     26 CB         24.0670  -46.9672  -58.1448 C.3       9 UNK        -0.1964 
     27 N          26.4259  -46.9490  -57.4170 N.am      9 UNK        -0.4231 
     28 C          27.2141  -47.3512  -58.4278 C.2       9 UNK         0.5014 
     29 O          27.0365  -47.0408  -59.6069 O.2       9 UNK        -0.5270 
     30 CA         28.4255  -48.2202  -58.0550 C.3       8 UNK         0.0284 
     31 CB         29.5644  -47.3580  -57.4912 C.3       8 UNK        -0.1977 
     32 N          28.0929  -49.2764  -57.0985 N.am      8 UNK        -0.4342 
     33 C          27.3663  -50.3624  -57.3981 C.2       8 UNK         0.5039 
     34 O          26.9273  -50.6109  -58.5217 O.2       8 UNK        -0.5547 
     35 CA         27.0758  -51.3340  -56.2458 C.3       7 UNK         0.0281 
     36 CB         28.2992  -52.2176  -55.9480 C.3       7 UNK        -0.1963 
     37 N          26.6639  -50.6204  -55.0363 N.am      7 UNK        -0.4444 
     38 C          25.4372  -50.1147  -54.8434 C.2       7 UNK         0.5104 
     39 O          24.5075  -50.2473  -55.6396 O.2       7 UNK        -0.5100 
     40 CA         25.1977  -49.3314  -53.5400 C.3       6 UNK         0.0396 
     41 CB         24.5912  -50.2505  -52.4678 C.3       6 UNK        -0.1801 
     42 N          26.4066  -48.6988  -53.0052 N.am      6 UNK        -0.4747 
     43 C          27.0291  -47.6536  -53.5689 C.2       6 UNK         0.5012 
     44 O          26.6601  -47.1128  -54.6102 O.2       6 UNK        -0.5003 
     45 CA         28.3170  -47.1672  -52.8820 C.3       5 UNK         0.0782 
     46 C46        27.9811  -46.2229  -51.7038 C.3       11 UNK        -0.0868 
     47 S47        29.4664  -45.5292  -50.8987 S.3       11 UNK        -0.2515 
     48 C48        29.3879  -43.7718  -51.3722 C.3       11 UNK         0.0199 
     49 N          29.1955  -48.2762  -52.4869 N.am      5 UNK        -0.4607 
     50 C          29.7184  -49.1746  -53.3292 C.2       4 UNK         0.5031 
     51 O          29.4600  -49.2197  -54.5366 O.2       4 UNK        -0.5119 
     52 CA         30.6699  -50.2108  -52.7283 C.3       4 UNK         0.0263 
     53 CB         29.9144  -51.4820  -52.3063 C.3       4 UNK        -0.1967 
     54 N          31.6584  -50.5269  -53.7507 N.am      4 UNK        -0.4237 
     55 C          32.9480  -50.8000  -53.5300 C.2       3 UNK         0.4908 
     56 O          33.4273  -51.0034  -52.4130 O.2       3 UNK        -0.5102 
     57 CA         33.8762  -50.8187  -54.7525 C.3       3 UNK         0.0241 
     58 CB         33.1477  -50.7811  -56.1161 C.3       3 UNK        -0.1971 
     59 N          34.7878  -49.6802  -54.6454 N.am      3 UNK        -0.4139 
     60 C          36.0433  -49.6523  -55.1134 C.2       2 UNK         0.5016 
     61 O          36.5759  -50.6160  -55.6671 O.2       2 UNK        -0.5319 
     62 CA         36.8453  -48.3413  -54.9707 C.3       2 UNK         0.0286 
     63 CB         37.5320  -47.9631  -56.2963 C.3       2 UNK        -0.1963 
     64 N          36.0095  -47.2141  -54.5461 N.am      2 UNK        -0.4790 
     65 C          36.0332  -46.6415  -53.3338 C.2       1 UNK         0.5024 
     66 O          36.8182  -46.9687  -52.4428 O.2       1 UNK        -0.4888 
     67 H67        31.5873  -47.5829  -55.2906 H         1 UNK         0.0892 
     68 H68        30.9017  -46.2166  -54.4076 H         1 UNK         0.0892 
     69 H69        32.0221  -45.9344  -55.7432 H         1 UNK         0.0892 
     70 H70        33.6222  -44.8262  -54.4920 H         1 UNK         0.3107 
     71 H71        34.6683  -45.6810  -52.0202 H         1 UNK         0.0773 
     72 H72        35.7898  -43.8357  -54.1988 H         1 UNK         0.0680 
     73 H73        36.6310  -44.1242  -52.7024 H         1 UNK         0.0680 
     74 H74        34.1647  -42.1490  -54.5328 H         1 UNK         0.0650 
     75 H75        33.5307  -41.0392  -53.3481 H         1 UNK         0.0650 
     76 H76        31.9218  -42.8188  -51.5575 H         1 UNK         0.1397 
     77 H77        28.6138  -44.0634  -53.9817 H         1 UNK         0.1363 
     78 H78        32.2243  -42.6788  -55.8341 H         1 UNK         0.1355 
     79 H79        30.5398  -43.8321  -57.1533 H         1 UNK         0.0707 
     80 H80        29.1306  -44.5463  -56.4017 H         1 UNK         0.0707 
     81 H81        28.7053  -41.7391  -59.2813 H         1 UNK         0.1034 
     82 H82        29.1757  -43.3945  -59.0379 H         1 UNK         0.1034 
     83 H83        26.3413  -42.2792  -58.7438 H         1 UNK         0.0482 
     84 H84        26.8046  -45.3063  -60.5261 H         1 UNK         0.3460 
     85 H85        26.6453  -44.5685  -62.1043 H         1 UNK         0.3460 
     86 H86        27.3644  -44.8146  -57.8537 H         1 UNK         0.2989 
     87 H87        24.9084  -45.9348  -56.4684 H         1 UNK         0.0559 
     88 H88        24.2655  -47.1676  -59.1982 H         1 UNK         0.0848 
     89 H89        23.1123  -46.4433  -58.0865 H         1 UNK         0.0848 
     90 H90        23.9393  -47.9251  -57.6398 H         1 UNK         0.0848 
     91 H91        26.6794  -47.2156  -56.4674 H         1 UNK         0.3144 
     92 H92        28.7845  -48.6921  -58.9723 H         1 UNK         0.0727 
     93 H93        29.3112  -46.9468  -56.5137 H         1 UNK         0.0790 
     94 H94        29.7962  -46.5243  -58.1555 H         1 UNK         0.0790 
     95 H95        30.4758  -47.9454  -57.3825 H         1 UNK         0.0790 
     96 H96        28.4623  -49.1816  -56.1551 H         1 UNK         0.3215 
     97 H97        26.2593  -51.9892  -56.5584 H         1 UNK         0.0863 
     98 H98        28.0862  -52.9358  -55.1562 H         1 UNK         0.0808 
     99 H99        29.1673  -51.6312  -55.6471 H         1 UNK         0.0808 
    100 H100       28.5870  -52.7885  -56.8318 H         1 UNK         0.0808 
    101 H101       27.3789  -50.4231  -54.3515 H         1 UNK         0.3118 
    102 H102       24.4741  -48.5435  -53.7604 H         1 UNK         0.0546 
    103 H103       25.2741  -51.0539  -52.1889 H         1 UNK         0.0828 
    104 H104       23.6721  -50.7153  -52.8276 H         1 UNK         0.0828 
    105 H105       24.3376  -49.6948  -51.5649 H         1 UNK         0.0828 
    106 H106       26.7907  -49.0872  -52.1555 H         1 UNK         0.3005 
    107 H107       28.8523  -46.5845  -53.6311 H         1 UNK         0.1257 
    108 H108       27.4123  -46.7560  -50.9394 H         1 UNK         0.0775 
    109 H109       27.3352  -45.4101  -52.0405 H         1 UNK         0.0775 
    110 H110       28.3542  -43.4469  -51.4970 H         1 UNK         0.0840 
    111 H111       29.7814  -43.1789  -50.5450 H         1 UNK         0.0840 
    112 H112       29.4674  -48.2963  -51.5143 H         1 UNK         0.2987 
    113 H113       31.1666  -49.7681  -51.8617 H         1 UNK         0.0785 
    114 H114       29.1619  -51.2585  -51.5492 H         1 UNK         0.0798 
    115 H115       30.5942  -52.2192  -51.8787 H         1 UNK         0.0798 
    116 H116       29.4046  -51.9497  -53.1486 H         1 UNK         0.0798 
    117 H117       31.3480  -50.3268  -54.6929 H         1 UNK         0.3079 
    118 H118       34.4449  -51.7490  -54.6904 H         1 UNK         0.0794 
    119 H119       32.4342  -51.6012  -56.2082 H         1 UNK         0.0786 
    120 H120       33.8564  -50.8871  -56.9377 H         1 UNK         0.0786 
    121 H121       32.6096  -49.8449  -56.2700 H         1 UNK         0.0786 
    122 H122       34.4299  -48.8854  -54.1230 H         1 UNK         0.3032 
    123 H123       37.6252  -48.5359  -54.2311 H         1 UNK         0.1094 
    124 H124       38.1156  -47.0481  -56.1927 H         1 UNK         0.0794 
    125 H125       38.2193  -48.7450  -56.6223 H         1 UNK         0.0794 
    126 H126       36.8075  -47.8106  -57.0972 H         1 UNK         0.0794 
    127 H127       35.3298  -46.8819  -55.2156 H         1 UNK         0.3016 
@<TRIPOS>BOND
     1    1    2 1    
     2    1   67 1    
     3    1   68 1    
     4    1   69 1    
     5    2    3 2    
     6    2    4 am   BACKBONE|DICT|INTERRES
     7    4    5 1    
     8    4   70 1    
     9    5    6 1    
    10    5   65 1    
    11    5   71 1    
    12    6    7 1    
    13    6   72 1    
    14    6   73 1    
    15    7    8 1    
    16    8    9 1    
    17    8   74 1    
    18    8   75 1    
    19    9   10 ar   
    20    9   14 ar   
    21   10   11 ar   
    22   10   76 1    
    23   11   12 ar   
    24   11   48 1    
    25   12   13 ar   
    26   12   77 1    
    27   13   14 ar   
    28   13   15 1    
    29   14   78 1    
    30   15   16 1    
    31   15   79 1    
    32   15   80 1    
    33   16   17 1    
    34   17   18 1    
    35   17   81 1    
    36   17   82 1    
    37   18   19 1    
    38   18   22 1    
    39   18   83 1    
    40   19   20 am   BACKBONE|DICT|INTERRES
    41   19   21 2    
    42   20   84 1    
    43   20   85 1    
    44   22   23 am   BACKBONE|DICT|INTERRES
    45   22   86 1    
    46   23   24 2    
    47   23   25 1    
    48   25   26 1    
    49   25   27 1    
    50   25   87 1    
    51   26   88 1    
    52   26   89 1    
    53   26   90 1    
    54   27   28 am   BACKBONE|DICT|INTERRES
    55   27   91 1    
    56   28   29 2    
    57   28   30 1    
    58   30   31 1    
    59   30   32 1    
    60   30   92 1    
    61   31   93 1    
    62   31   94 1    
    63   31   95 1    
    64   32   33 am   BACKBONE|DICT|INTERRES
    65   32   96 1    
    66   33   34 2    
    67   33   35 1    
    68   35   36 1    
    69   35   37 1    
    70   35   97 1    
    71   36   98 1    
    72   36   99 1    
    73   36  100 1    
    74   37   38 am   BACKBONE|DICT|INTERRES
    75   37  101 1    
    76   38   39 2    
    77   38   40 1    
    78   40   41 1    
    79   40   42 1    
    80   40  102 1    
    81   41  103 1    
    82   41  104 1    
    83   41  105 1    
    84   42   43 am   BACKBONE|DICT|INTERRES
    85   42  106 1    
    86   43   44 2    
    87   43   45 1    
    88   45   46 1    
    89   45   49 1    
    90   45  107 1    
    91   46   47 1    
    92   46  108 1    
    93   46  109 1    
    94   47   48 1    
    95   48  110 1    
    96   48  111 1    
    97   49   50 am   BACKBONE|DICT|INTERRES
    98   49  112 1    
    99   50   51 2    
   100   50   52 1    
   101   52   53 1    
   102   52   54 1    
   103   52  113 1    
   104   53  114 1    
   105   53  115 1    
   106   53  116 1    
   107   54   55 am   BACKBONE|DICT|INTERRES
   108   54  117 1    
   109   55   56 2    
   110   55   57 1    
   111   57   58 1    
   112   57   59 1    
   113   57  118 1    
   114   58  119 1    
   115   58  120 1    
   116   58  121 1    
   117   59   60 am   BACKBONE|DICT|INTERRES
   118   59  122 1    
   119   60   61 2    
   120   60   62 1    
   121   62   63 1    
   122   62   64 1    
   123   62  123 1    
   124   63  124 1    
   125   63  125 1    
   126   63  126 1    
   127   64   65 am   BACKBONE|DICT|INTERRES
   128   64  127 1    
   129   65   66 2    
@<TRIPOS>SUBSTRUCTURE
     1 UNK         1 GROUP             0       ****    0 ROOT    
