@<TRIPOS>MOLECULE
3R134
127   129    1
SMALL
USER_CHARGES


@<TRIPOS>ATOM
      1 CA         33.3508  -45.0180  -57.8577 C.3       0 UNK        -0.1968 
      2 C          34.0023  -44.9978  -56.4822 C.2       0 UNK         0.4852 
      3 O          35.2304  -44.9662  -56.3910 O.2       0 UNK        -0.5359 
      4 N          33.1793  -45.0063  -55.4245 N.am      1 UNK        -0.4300 
      5 CA         33.5589  -45.0404  -54.0078 C.3       1 UNK         0.0863 
      6 C6         34.4723  -43.8457  -53.5900 C.3       11 UNK        -0.0953 
      7 S7         34.0904  -43.1878  -51.9279 S.3       11 UNK        -0.2369 
      8 C8         32.9135  -41.8400  -52.3077 C.3       11 UNK         0.0226 
      9 C9         31.6887  -42.3680  -53.0400 C.ar      11 UNK        -0.0699 
     10 C10        30.8416  -43.2781  -52.4035 C.ar      11 UNK        -0.0804 
     11 C11        29.8356  -43.9298  -53.1209 C.ar      11 UNK        -0.0871 
     12 C12        29.6177  -43.5951  -54.4603 C.ar      11 UNK        -0.1008 
     13 C13        30.4195  -42.6377  -55.0908 C.ar      11 UNK        -0.0735 
     14 C14        31.4576  -42.0299  -54.3772 C.ar      11 UNK        -0.0945 
     15 C15        30.2004  -42.3100  -56.5591 C.3       11 UNK         0.0169 
     16 S16        28.6583  -41.3802  -56.8087 S.3       11 UNK        -0.2669 
     17 C17        28.5592  -41.3454  -58.6310 C.3       11 UNK        -0.0850 
     18 CA         27.5536  -42.3875  -59.1912 C.3       10 UNK         0.0855 
     19 C          27.2736  -42.1421  -60.7036 C.2       10 UNK         0.5543 
     20 N          27.5365  -43.0901  -61.5952 N.am      10 UNK        -0.7343 
     21 O          26.8001  -41.0705  -61.0736 O.2       10 UNK        -0.5027 
     22 N          27.9600  -43.7668  -58.8648 N.am      10 UNK        -0.4495 
     23 C          27.1204  -44.8006  -58.7315 C.2       10 UNK         0.4903 
     24 O          25.8986  -44.7070  -58.8707 O.2       10 UNK        -0.4860 
     25 CA         27.7476  -46.1810  -58.4386 C.3       9 UNK         0.0227 
     26 CB         29.1569  -46.1231  -57.8049 C.3       9 UNK        -0.1964 
     27 N          26.8551  -47.0312  -57.6456 N.am      9 UNK        -0.4231 
     28 C          26.4115  -46.8225  -56.3992 C.2       9 UNK         0.5014 
     29 O          26.7719  -45.8888  -55.6812 O.2       9 UNK        -0.5270 
     30 CA         25.3964  -47.8382  -55.8429 C.3       8 UNK         0.0284 
     31 CB         23.9773  -47.5635  -56.3782 C.3       8 UNK        -0.1977 
     32 N          25.7859  -49.2453  -56.0194 N.am      8 UNK        -0.4342 
     33 C          25.9179  -49.9580  -57.1503 C.2       8 UNK         0.5039 
     34 O          25.6679  -49.5046  -58.2690 O.2       8 UNK        -0.5547 
     35 CA         26.4506  -51.3993  -57.0222 C.3       7 UNK         0.0281 
     36 CB         27.3825  -51.7655  -58.1923 C.3       7 UNK        -0.1963 
     37 N          27.1866  -51.5753  -55.7697 N.am      7 UNK        -0.4444 
     38 C          26.7880  -52.3114  -54.7229 C.2       7 UNK         0.5104 
     39 O          25.7795  -53.0173  -54.7253 O.2       7 UNK        -0.5100 
     40 CA         27.6378  -52.2219  -53.4379 C.3       6 UNK         0.0396 
     41 CB         28.5912  -53.4228  -53.3430 C.3       6 UNK        -0.1801 
     42 N          28.4138  -50.9811  -53.3339 N.am      6 UNK        -0.4747 
     43 C          27.8864  -49.7481  -53.2549 C.2       6 UNK         0.5012 
     44 O          26.6775  -49.5380  -53.1575 O.2       6 UNK        -0.5003 
     45 CA         28.8462  -48.5471  -53.3848 C.3       5 UNK         0.0782 
     46 C46        29.0514  -47.8617  -52.0128 C.3       11 UNK        -0.0868 
     47 S47        30.1899  -46.4462  -52.1209 S.3       11 UNK        -0.2515 
     48 C48        29.0586  -45.0627  -52.4712 C.3       11 UNK         0.0199 
     49 N          30.1150  -48.8930  -54.0390 N.am      5 UNK        -0.4607 
     50 C          30.2420  -49.3183  -55.3040 C.2       4 UNK         0.5031 
     51 O          29.2855  -49.4909  -56.0590 O.2       4 UNK        -0.5119 
     52 CA         31.6597  -49.6466  -55.8032 C.3       4 UNK         0.0263 
     53 CB         32.1985  -48.4982  -56.6688 C.3       4 UNK        -0.1967 
     54 N          32.6129  -49.9463  -54.7268 N.am      4 UNK        -0.4237 
     55 C          32.5316  -51.0258  -53.9309 C.2       3 UNK         0.4908 
     56 O          31.6223  -51.8532  -54.0065 O.2       3 UNK        -0.5102 
     57 CA         33.6276  -51.2323  -52.8690 C.3       3 UNK         0.0241 
     58 CB         34.6364  -52.2914  -53.3426 C.3       3 UNK        -0.1971 
     59 N          34.3516  -50.0139  -52.4999 N.am      3 UNK        -0.4139 
     60 C          33.8245  -48.9772  -51.8352 C.2       2 UNK         0.5016 
     61 O          32.6507  -48.9333  -51.4652 O.2       2 UNK        -0.5319 
     62 CA         34.7493  -47.7758  -51.5477 C.3       2 UNK         0.0286 
     63 CB         36.2449  -48.0381  -51.8410 C.3       2 UNK        -0.1963 
     64 N          34.3028  -46.5640  -52.2450 N.am      2 UNK        -0.4790 
     65 C          34.0898  -46.4215  -53.5613 C.2       1 UNK         0.5024 
     66 O          34.2581  -47.3317  -54.3787 O.2       1 UNK        -0.4888 
     67 H67        33.6760  -44.1564  -58.4401 H         1 UNK         0.0892 
     68 H68        33.6390  -45.9217  -58.3942 H         1 UNK         0.0892 
     69 H69        32.2634  -44.9933  -57.7957 H         1 UNK         0.0892 
     70 H70        32.1831  -45.0330  -55.5834 H         1 UNK         0.3107 
     71 H71        32.6060  -44.9459  -53.4924 H         1 UNK         0.0773 
     72 H72        35.5271  -44.1242  -53.6287 H         1 UNK         0.0680 
     73 H73        34.3691  -43.0203  -54.2961 H         1 UNK         0.0680 
     74 H74        32.6019  -41.3643  -51.3769 H         1 UNK         0.0650 
     75 H75        33.4219  -41.0736  -52.8947 H         1 UNK         0.0650 
     76 H76        31.0333  -43.5585  -51.3765 H         1 UNK         0.1397 
     77 H77        28.8368  -44.0924  -55.0204 H         1 UNK         0.1363 
     78 H78        32.1113  -41.3261  -54.8739 H         1 UNK         0.1355 
     79 H79        30.1695  -43.2381  -57.1289 H         1 UNK         0.0707 
     80 H80        31.0355  -41.7307  -56.9564 H         1 UNK         0.0707 
     81 H81        29.5498  -41.4872  -59.0669 H         1 UNK         0.1034 
     82 H82        28.2547  -40.3347  -58.9105 H         1 UNK         0.1034 
     83 H83        26.5991  -42.2025  -58.6941 H         1 UNK         0.0482 
     84 H84        27.3457  -42.9181  -62.5699 H         1 UNK         0.3460 
     85 H85        27.9173  -43.9753  -61.3035 H         1 UNK         0.3460 
     86 H86        28.9498  -43.9295  -58.7704 H         1 UNK         0.2989 
     87 H87        27.8436  -46.6782  -59.4046 H         1 UNK         0.0559 
     88 H88        29.5129  -47.1249  -57.5676 H         1 UNK         0.0848 
     89 H89        29.1661  -45.5470  -56.8802 H         1 UNK         0.0848 
     90 H90        29.8856  -45.6832  -58.4857 H         1 UNK         0.0848 
     91 H91        26.4650  -47.8417  -58.1245 H         1 UNK         0.3144 
     92 H92        25.3659  -47.6820  -54.7634 H         1 UNK         0.0727 
     93 H93        23.2464  -48.2334  -55.9255 H         1 UNK         0.0790 
     94 H94        23.9157  -47.6810  -57.4604 H         1 UNK         0.0790 
     95 H95        23.6687  -46.5428  -56.1483 H         1 UNK         0.0790 
     96 H96        26.0381  -49.7079  -55.1531 H         1 UNK         0.3215 
     97 H97        25.5831  -52.0616  -57.0548 H         1 UNK         0.0863 
     98 H98        27.7634  -52.7819  -58.0923 H         1 UNK         0.0808 
     99 H99        28.2378  -51.0905  -58.2497 H         1 UNK         0.0808 
    100 H100       26.8575  -51.7112  -59.1469 H         1 UNK         0.0808 
    101 H101       28.0210  -51.0019  -55.6780 H         1 UNK         0.3118 
    102 H102       26.9537  -52.2590  -52.5876 H         1 UNK         0.0546 
    103 H103       28.0394  -54.3634  -53.3721 H         1 UNK         0.0828 
    104 H104       29.1580  -53.4091  -52.4119 H         1 UNK         0.0828 
    105 H105       29.3043  -53.4377  -54.1685 H         1 UNK         0.0828 
    106 H106       29.4183  -51.0684  -53.4301 H         1 UNK         0.3005 
    107 H107       28.3453  -47.8309  -54.0406 H         1 UNK         0.1257 
    108 H108       29.4704  -48.5677  -51.2929 H         1 UNK         0.0775 
    109 H109       28.1000  -47.5249  -51.5959 H         1 UNK         0.0775 
    110 H110       28.2525  -45.3994  -53.1255 H         1 UNK         0.0840 
    111 H111       28.5947  -44.7194  -51.5455 H         1 UNK         0.0840 
    112 H112       30.9470  -48.7801  -53.4750 H         1 UNK         0.2987 
    113 H113       31.5839  -50.5368  -56.4313 H         1 UNK         0.0785 
    114 H114       31.5898  -48.3677  -57.5641 H         1 UNK         0.0798 
    115 H115       33.2203  -48.6875  -56.9980 H         1 UNK         0.0798 
    116 H116       32.1887  -47.5534  -56.1270 H         1 UNK         0.0798 
    117 H117       33.3642  -49.2796  -54.5836 H         1 UNK         0.3079 
    118 H118       33.1344  -51.6102  -51.9708 H         1 UNK         0.0794 
    119 H119       35.1792  -51.9641  -54.2303 H         1 UNK         0.0786 
    120 H120       34.1326  -53.2257  -53.5951 H         1 UNK         0.0786 
    121 H121       35.3667  -52.5204  -52.5661 H         1 UNK         0.0786 
    122 H122       35.3175  -49.9529  -52.7881 H         1 UNK         0.3032 
    123 H123       34.6531  -47.5759  -50.4791 H         1 UNK         0.1094 
    124 H124       36.8541  -47.1879  -51.5337 H         1 UNK         0.0794 
    125 H125       36.6118  -48.9041  -51.2881 H         1 UNK         0.0794 
    126 H126       36.4381  -48.2089  -52.9007 H         1 UNK         0.0794 
    127 H127       34.1022  -45.7684  -51.6527 H         1 UNK         0.3016 
@<TRIPOS>BOND
     1    1    2 1    
     2    1   67 1    
     3    1   68 1    
     4    1   69 1    
     5    2    3 2    
     6    2    4 am   BACKBONE|DICT|INTERRES
     7    4    5 1    
     8    4   70 1    
     9    5    6 1    
    10    5   65 1    
    11    5   71 1    
    12    6    7 1    
    13    6   72 1    
    14    6   73 1    
    15    7    8 1    
    16    8    9 1    
    17    8   74 1    
    18    8   75 1    
    19    9   10 ar   
    20    9   14 ar   
    21   10   11 ar   
    22   10   76 1    
    23   11   12 ar   
    24   11   48 1    
    25   12   13 ar   
    26   12   77 1    
    27   13   14 ar   
    28   13   15 1    
    29   14   78 1    
    30   15   16 1    
    31   15   79 1    
    32   15   80 1    
    33   16   17 1    
    34   17   18 1    
    35   17   81 1    
    36   17   82 1    
    37   18   19 1    
    38   18   22 1    
    39   18   83 1    
    40   19   20 am   BACKBONE|DICT|INTERRES
    41   19   21 2    
    42   20   84 1    
    43   20   85 1    
    44   22   23 am   BACKBONE|DICT|INTERRES
    45   22   86 1    
    46   23   24 2    
    47   23   25 1    
    48   25   26 1    
    49   25   27 1    
    50   25   87 1    
    51   26   88 1    
    52   26   89 1    
    53   26   90 1    
    54   27   28 am   BACKBONE|DICT|INTERRES
    55   27   91 1    
    56   28   29 2    
    57   28   30 1    
    58   30   31 1    
    59   30   32 1    
    60   30   92 1    
    61   31   93 1    
    62   31   94 1    
    63   31   95 1    
    64   32   33 am   BACKBONE|DICT|INTERRES
    65   32   96 1    
    66   33   34 2    
    67   33   35 1    
    68   35   36 1    
    69   35   37 1    
    70   35   97 1    
    71   36   98 1    
    72   36   99 1    
    73   36  100 1    
    74   37   38 am   BACKBONE|DICT|INTERRES
    75   37  101 1    
    76   38   39 2    
    77   38   40 1    
    78   40   41 1    
    79   40   42 1    
    80   40  102 1    
    81   41  103 1    
    82   41  104 1    
    83   41  105 1    
    84   42   43 am   BACKBONE|DICT|INTERRES
    85   42  106 1    
    86   43   44 2    
    87   43   45 1    
    88   45   46 1    
    89   45   49 1    
    90   45  107 1    
    91   46   47 1    
    92   46  108 1    
    93   46  109 1    
    94   47   48 1    
    95   48  110 1    
    96   48  111 1    
    97   49   50 am   BACKBONE|DICT|INTERRES
    98   49  112 1    
    99   50   51 2    
   100   50   52 1    
   101   52   53 1    
   102   52   54 1    
   103   52  113 1    
   104   53  114 1    
   105   53  115 1    
   106   53  116 1    
   107   54   55 am   BACKBONE|DICT|INTERRES
   108   54  117 1    
   109   55   56 2    
   110   55   57 1    
   111   57   58 1    
   112   57   59 1    
   113   57  118 1    
   114   58  119 1    
   115   58  120 1    
   116   58  121 1    
   117   59   60 am   BACKBONE|DICT|INTERRES
   118   59  122 1    
   119   60   61 2    
   120   60   62 1    
   121   62   63 1    
   122   62   64 1    
   123   62  123 1    
   124   63  124 1    
   125   63  125 1    
   126   63  126 1    
   127   64   65 am   BACKBONE|DICT|INTERRES
   128   64  127 1    
   129   65   66 2    
@<TRIPOS>SUBSTRUCTURE
     1 UNK         1 GROUP             0       ****    0 ROOT    
