@<TRIPOS>MOLECULE
3R134
127   129    1
SMALL
USER_CHARGES


@<TRIPOS>ATOM
      1 CA         32.6874  -45.3824  -50.5691 C.3       0 UNK        -0.1968 
      2 C          33.2164  -45.9072  -51.8956 C.2       0 UNK         0.4852 
      3 O          32.5015  -46.6402  -52.5835 O.2       0 UNK        -0.5359 
      4 N          34.4624  -45.5383  -52.2438 N.am      1 UNK        -0.4300 
      5 CA         35.1869  -45.9342  -53.4625 C.3       1 UNK         0.0863 
      6 C6         34.5787  -45.3059  -54.7461 C.3       11 UNK        -0.0953 
      7 S7         35.1059  -43.5832  -55.0250 S.3       11 UNK        -0.2369 
      8 C8         33.9429  -42.6091  -54.0085 C.3       11 UNK         0.0226 
      9 C9         32.4597  -42.8539  -54.2830 C.ar      11 UNK        -0.0699 
     10 C10        31.5608  -42.7988  -53.2140 C.ar      11 UNK        -0.0804 
     11 C11        30.1919  -42.9971  -53.4130 C.ar      11 UNK        -0.0871 
     12 C12        29.7207  -43.2486  -54.7053 C.ar      11 UNK        -0.1008 
     13 C13        30.6063  -43.3185  -55.7848 C.ar      11 UNK        -0.0735 
     14 C14        31.9718  -43.1051  -55.5715 C.ar      11 UNK        -0.0945 
     15 C15        30.0827  -43.6421  -57.1748 C.3       11 UNK         0.0169 
     16 S16        29.1793  -42.2305  -57.8817 S.3       11 UNK        -0.2669 
     17 C17        28.5351  -42.9479  -59.4320 C.3       11 UNK        -0.0850 
     18 CA         27.0523  -43.3918  -59.3070 C.3       10 UNK         0.0855 
     19 C          26.4268  -43.6951  -60.7019 C.2       10 UNK         0.5543 
     20 N          25.8692  -44.8740  -60.9546 N.am      10 UNK        -0.7343 
     21 O          26.4395  -42.8325  -61.5765 O.2       10 UNK        -0.5027 
     22 N          26.9045  -44.4826  -58.3320 N.am      10 UNK        -0.4495 
     23 C          25.8003  -44.7489  -57.6250 C.2       10 UNK         0.4903 
     24 O          24.7866  -44.0492  -57.6449 O.2       10 UNK        -0.4860 
     25 CA         25.8483  -46.0249  -56.7586 C.3       9 UNK         0.0227 
     26 CB         24.4472  -46.5379  -56.3665 C.3       9 UNK        -0.1964 
     27 N          26.6450  -47.1075  -57.3556 N.am      9 UNK        -0.4231 
     28 C          26.4568  -47.6866  -58.5524 C.2       9 UNK         0.5014 
     29 O          25.5670  -47.3644  -59.3404 O.2       9 UNK        -0.5270 
     30 CA         27.4438  -48.7882  -58.9574 C.3       8 UNK         0.0284 
     31 CB         28.7199  -48.1698  -59.5556 C.3       8 UNK        -0.1977 
     32 N          27.7973  -49.6418  -57.8196 N.am      8 UNK        -0.4342 
     33 C          27.4329  -50.9239  -57.6918 C.2       8 UNK         0.5039 
     34 O          26.7490  -51.5301  -58.5182 O.2       8 UNK        -0.5547 
     35 CA         27.9256  -51.6773  -56.4459 C.3       7 UNK         0.0281 
     36 CB         29.3451  -52.2243  -56.6687 C.3       7 UNK        -0.1963 
     37 N          27.8953  -50.8863  -55.2141 N.am      7 UNK        -0.4444 
     38 C          26.7764  -50.5636  -54.5496 C.2       7 UNK         0.5104 
     39 O          25.6402  -50.7956  -54.9628 O.2       7 UNK        -0.5100 
     40 CA         26.9556  -49.8975  -53.1768 C.3       6 UNK         0.0396 
     41 CB         27.3916  -50.9315  -52.1252 C.3       6 UNK        -0.1801 
     42 N          27.9405  -48.8190  -53.2365 N.am      6 UNK        -0.4747 
     43 C          27.6356  -47.5280  -53.4313 C.2       6 UNK         0.5012 
     44 O          26.4810  -47.1068  -53.4980 O.2       6 UNK        -0.5003 
     45 CA         28.8125  -46.5396  -53.6091 C.3       5 UNK         0.0782 
     46 C46        29.1164  -45.7759  -52.2950 C.3       11 UNK        -0.0868 
     47 S47        28.0503  -44.3037  -52.1222 S.3       11 UNK        -0.2515 
     48 C48        29.2404  -42.9220  -52.2212 C.3       11 UNK         0.0199 
     49 N          30.0129  -47.1656  -54.1777 N.am      5 UNK        -0.4607 
     50 C          30.0528  -47.7202  -55.3972 C.2       4 UNK         0.5031 
     51 O          29.1026  -47.7042  -56.1794 O.2       4 UNK        -0.5119 
     52 CA         31.3199  -48.4868  -55.8019 C.3       4 UNK         0.0263 
     53 CB         32.2435  -47.5961  -56.6422 C.3       4 UNK        -0.1967 
     54 N          32.0487  -49.0761  -54.6714 N.am      4 UNK        -0.4237 
     55 C          31.5387  -50.0324  -53.8741 C.2       3 UNK         0.4908 
     56 O          30.3766  -50.4297  -53.9753 O.2       3 UNK        -0.5102 
     57 CA         32.4308  -50.6693  -52.7951 C.3       3 UNK         0.0241 
     58 CB         32.3824  -52.2083  -52.8628 C.3       3 UNK        -0.1971 
     59 N          33.8165  -50.2144  -52.8725 N.am      3 UNK        -0.4139 
     60 C          34.6574  -50.1003  -51.8408 C.2       2 UNK         0.5016 
     61 O          34.3864  -50.4329  -50.6863 O.2       2 UNK        -0.5319 
     62 CA         36.0275  -49.4706  -52.1447 C.3       2 UNK         0.0286 
     63 CB         36.8150  -50.2553  -53.2155 C.3       2 UNK        -0.1963 
     64 N          35.9174  -48.0425  -52.4729 N.am      2 UNK        -0.4790 
     65 C          35.3149  -47.4723  -53.5290 C.2       1 UNK         0.5024 
     66 O          34.8235  -48.1070  -54.4664 O.2       1 UNK        -0.4888 
     67 H67        32.3315  -46.2100  -49.9562 H         1 UNK         0.0892 
     68 H68        33.4529  -44.8495  -50.0057 H         1 UNK         0.0892 
     69 H69        31.8545  -44.7014  -50.7372 H         1 UNK         0.0892 
     70 H70        34.9840  -44.9433  -51.6155 H         1 UNK         0.3107 
     71 H71        36.2086  -45.5647  -53.3596 H         1 UNK         0.0773 
     72 H72        34.8887  -45.8524  -55.6385 H         1 UNK         0.0680 
     73 H73        33.4920  -45.3557  -54.7234 H         1 UNK         0.0680 
     74 H74        34.1501  -41.5511  -54.1723 H         1 UNK         0.0650 
     75 H75        34.1700  -42.8039  -52.9598 H         1 UNK         0.0650 
     76 H76        31.9309  -42.5927  -52.2191 H         1 UNK         0.1397 
     77 H77        28.6626  -43.3957  -54.8731 H         1 UNK         0.1363 
     78 H78        32.6554  -43.1444  -56.4079 H         1 UNK         0.1355 
     79 H79        30.9013  -43.9180  -57.8416 H         1 UNK         0.0707 
     80 H80        29.4280  -44.5119  -57.1118 H         1 UNK         0.0707 
     81 H81        28.6398  -42.1792  -60.2002 H         1 UNK         0.1034 
     82 H82        29.1654  -43.7782  -59.7555 H         1 UNK         0.1034 
     83 H83        26.4926  -42.5344  -58.9281 H         1 UNK         0.0482 
     84 H84        25.4687  -45.0376  -61.8643 H         1 UNK         0.3460 
     85 H85        25.8160  -45.6003  -60.2488 H         1 UNK         0.3460 
     86 H86        27.6746  -45.1297  -58.2708 H         1 UNK         0.2989 
     87 H87        26.3636  -45.7389  -55.8415 H         1 UNK         0.0559 
     88 H88        23.8512  -46.7972  -57.2420 H         1 UNK         0.0848 
     89 H89        23.8952  -45.7820  -55.8070 H         1 UNK         0.0848 
     90 H90        24.5154  -47.4214  -55.7312 H         1 UNK         0.0848 
     91 H91        27.4663  -47.3894  -56.8225 H         1 UNK         0.3144 
     92 H92        26.9642  -49.3771  -59.7421 H         1 UNK         0.0727 
     93 H93        29.2541  -47.5489  -58.8361 H         1 UNK         0.0790 
     94 H94        28.4819  -47.5411  -60.4149 H         1 UNK         0.0790 
     95 H95        29.4062  -48.9428  -59.9016 H         1 UNK         0.0790 
     96 H96        28.3367  -49.2041  -57.0788 H         1 UNK         0.3215 
     97 H97        27.2617  -52.5331  -56.3032 H         1 UNK         0.0863 
     98 H98        29.6768  -52.8242  -55.8208 H         1 UNK         0.0808 
     99 H99        30.0707  -51.4250  -56.8150 H         1 UNK         0.0808 
    100 H100       29.3823  -52.8633  -57.5521 H         1 UNK         0.0808 
    101 H101       28.7945  -50.6860  -54.7780 H         1 UNK         0.3118 
    102 H102       25.9860  -49.5021  -52.8662 H         1 UNK         0.0546 
    103 H103       26.6699  -51.7467  -52.0585 H         1 UNK         0.0828 
    104 H104       27.4625  -50.4812  -51.1351 H         1 UNK         0.0828 
    105 H105       28.3606  -51.3732  -52.3607 H         1 UNK         0.0828 
    106 H106       28.9151  -49.0969  -53.2492 H         1 UNK         0.3005 
    107 H107       28.4840  -45.8172  -54.3587 H         1 UNK         0.1257 
    108 H108       30.1546  -45.4486  -52.2806 H         1 UNK         0.0775 
    109 H109       29.0034  -46.4140  -51.4163 H         1 UNK         0.0775 
    110 H110       28.6851  -41.9849  -52.2754 H         1 UNK         0.0840 
    111 H111       29.7997  -42.8915  -51.2848 H         1 UNK         0.0840 
    112 H112       30.8517  -47.1695  -53.6025 H         1 UNK         0.2987 
    113 H113       31.0029  -49.3139  -56.4386 H         1 UNK         0.0785 
    114 H114       32.4874  -46.6733  -56.1233 H         1 UNK         0.0798 
    115 H115       31.7607  -47.3159  -57.5794 H         1 UNK         0.0798 
    116 H116       33.1752  -48.1029  -56.8943 H         1 UNK         0.0798 
    117 H117       32.9789  -48.7071  -54.5012 H         1 UNK         0.3079 
    118 H118       32.0114  -50.3506  -51.8384 H         1 UNK         0.0794 
    119 H119       32.7822  -52.5797  -53.8069 H         1 UNK         0.0786 
    120 H120       31.3596  -52.5768  -52.7725 H         1 UNK         0.0786 
    121 H121       32.9571  -52.6604  -52.0543 H         1 UNK         0.0786 
    122 H122       34.1379  -49.8609  -53.7665 H         1 UNK         0.3032 
    123 H123       36.6044  -49.5250  -51.2194 H         1 UNK         0.1094 
    124 H124       37.8170  -49.8459  -53.3435 H         1 UNK         0.0794 
    125 H125       36.9291  -51.2999  -52.9227 H         1 UNK         0.0794 
    126 H126       36.3276  -50.2462  -54.1903 H         1 UNK         0.0794 
    127 H127       36.2451  -47.4204  -51.7462 H         1 UNK         0.3016 
@<TRIPOS>BOND
     1    1    2 1    
     2    1   67 1    
     3    1   68 1    
     4    1   69 1    
     5    2    3 2    
     6    2    4 am   BACKBONE|DICT|INTERRES
     7    4    5 1    
     8    4   70 1    
     9    5    6 1    
    10    5   65 1    
    11    5   71 1    
    12    6    7 1    
    13    6   72 1    
    14    6   73 1    
    15    7    8 1    
    16    8    9 1    
    17    8   74 1    
    18    8   75 1    
    19    9   10 ar   
    20    9   14 ar   
    21   10   11 ar   
    22   10   76 1    
    23   11   12 ar   
    24   11   48 1    
    25   12   13 ar   
    26   12   77 1    
    27   13   14 ar   
    28   13   15 1    
    29   14   78 1    
    30   15   16 1    
    31   15   79 1    
    32   15   80 1    
    33   16   17 1    
    34   17   18 1    
    35   17   81 1    
    36   17   82 1    
    37   18   19 1    
    38   18   22 1    
    39   18   83 1    
    40   19   20 am   BACKBONE|DICT|INTERRES
    41   19   21 2    
    42   20   84 1    
    43   20   85 1    
    44   22   23 am   BACKBONE|DICT|INTERRES
    45   22   86 1    
    46   23   24 2    
    47   23   25 1    
    48   25   26 1    
    49   25   27 1    
    50   25   87 1    
    51   26   88 1    
    52   26   89 1    
    53   26   90 1    
    54   27   28 am   BACKBONE|DICT|INTERRES
    55   27   91 1    
    56   28   29 2    
    57   28   30 1    
    58   30   31 1    
    59   30   32 1    
    60   30   92 1    
    61   31   93 1    
    62   31   94 1    
    63   31   95 1    
    64   32   33 am   BACKBONE|DICT|INTERRES
    65   32   96 1    
    66   33   34 2    
    67   33   35 1    
    68   35   36 1    
    69   35   37 1    
    70   35   97 1    
    71   36   98 1    
    72   36   99 1    
    73   36  100 1    
    74   37   38 am   BACKBONE|DICT|INTERRES
    75   37  101 1    
    76   38   39 2    
    77   38   40 1    
    78   40   41 1    
    79   40   42 1    
    80   40  102 1    
    81   41  103 1    
    82   41  104 1    
    83   41  105 1    
    84   42   43 am   BACKBONE|DICT|INTERRES
    85   42  106 1    
    86   43   44 2    
    87   43   45 1    
    88   45   46 1    
    89   45   49 1    
    90   45  107 1    
    91   46   47 1    
    92   46  108 1    
    93   46  109 1    
    94   47   48 1    
    95   48  110 1    
    96   48  111 1    
    97   49   50 am   BACKBONE|DICT|INTERRES
    98   49  112 1    
    99   50   51 2    
   100   50   52 1    
   101   52   53 1    
   102   52   54 1    
   103   52  113 1    
   104   53  114 1    
   105   53  115 1    
   106   53  116 1    
   107   54   55 am   BACKBONE|DICT|INTERRES
   108   54  117 1    
   109   55   56 2    
   110   55   57 1    
   111   57   58 1    
   112   57   59 1    
   113   57  118 1    
   114   58  119 1    
   115   58  120 1    
   116   58  121 1    
   117   59   60 am   BACKBONE|DICT|INTERRES
   118   59  122 1    
   119   60   61 2    
   120   60   62 1    
   121   62   63 1    
   122   62   64 1    
   123   62  123 1    
   124   63  124 1    
   125   63  125 1    
   126   63  126 1    
   127   64   65 am   BACKBONE|DICT|INTERRES
   128   64  127 1    
   129   65   66 2    
@<TRIPOS>SUBSTRUCTURE
     1 UNK         1 GROUP             0       ****    0 ROOT    
