@<TRIPOS>MOLECULE
3R134
127   129    1
SMALL
USER_CHARGES


@<TRIPOS>ATOM
      1 CA         37.4081  -49.0143  -52.9471 C.3       0 UNK        -0.1968 
      2 C          36.1902  -48.2364  -53.4204 C.2       0 UNK         0.4852 
      3 O          35.2951  -48.8177  -54.0352 O.2       0 UNK        -0.5359 
      4 N          36.1338  -46.9291  -53.1271 N.am      1 UNK        -0.4300 
      5 CA         35.0378  -46.0346  -53.5247 C.3       1 UNK         0.0863 
      6 C6         35.3727  -44.5431  -53.2547 C.3       11 UNK        -0.0953 
      7 S7         34.9142  -43.4692  -54.6567 S.3       11 UNK        -0.2369 
      8 C8         33.7917  -42.2471  -53.9037 C.3       11 UNK         0.0226 
      9 C9         32.3374  -42.4826  -54.2887 C.ar      11 UNK        -0.0699 
     10 C10        31.3977  -42.8741  -53.3285 C.ar      11 UNK        -0.0804 
     11 C11        30.0485  -43.0218  -53.6729 C.ar      11 UNK        -0.0871 
     12 C12        29.6476  -42.7831  -54.9906 C.ar      11 UNK        -0.1008 
     13 C13        30.5807  -42.4154  -55.9631 C.ar      11 UNK        -0.0735 
     14 C14        31.9223  -42.2591  -55.6058 C.ar      11 UNK        -0.0945 
     15 C15        30.1282  -42.1954  -57.3965 C.3       11 UNK         0.0169 
     16 S16        29.9513  -43.7897  -58.2507 S.3       11 UNK        -0.2669 
     17 C17        28.8024  -43.3574  -59.6036 C.3       11 UNK        -0.0850 
     18 CA         27.3229  -43.1812  -59.1555 C.3       10 UNK         0.0855 
     19 C          26.3978  -42.9528  -60.3866 C.2       10 UNK         0.5543 
     20 N          25.4200  -43.8095  -60.6548 N.am      10 UNK        -0.7343 
     21 O          26.5725  -41.9758  -61.1107 O.2       10 UNK        -0.5027 
     22 N          26.8937  -44.2443  -58.2325 N.am      10 UNK        -0.4495 
     23 C          25.8450  -44.1934  -57.4058 C.2       10 UNK         0.4903 
     24 O          25.0533  -43.2504  -57.3656 O.2       10 UNK        -0.4860 
     25 CA         25.6624  -45.4002  -56.4618 C.3       9 UNK         0.0227 
     26 CB         24.4358  -45.2567  -55.5420 C.3       9 UNK        -0.1964 
     27 N          25.5807  -46.6839  -57.1689 N.am      9 UNK        -0.4231 
     28 C          26.6203  -47.3415  -57.6977 C.2       9 UNK         0.5014 
     29 O          27.7641  -46.8869  -57.7370 O.2       9 UNK        -0.5270 
     30 CA         26.3396  -48.7185  -58.3047 C.3       8 UNK         0.0284 
     31 CB         26.5935  -48.7181  -59.8241 C.3       8 UNK        -0.1977 
     32 N          27.1930  -49.7019  -57.6413 N.am      8 UNK        -0.4342 
     33 C          26.9368  -51.0140  -57.5668 C.2       8 UNK         0.5039 
     34 O          25.9701  -51.5534  -58.1084 O.2       8 UNK        -0.5547 
     35 CA         27.8991  -51.8744  -56.7292 C.3       7 UNK         0.0281 
     36 CB         29.2179  -52.1334  -57.4766 C.3       7 UNK        -0.1963 
     37 N          28.1692  -51.2839  -55.4167 N.am      7 UNK        -0.4444 
     38 C          27.2831  -51.2423  -54.4109 C.2       7 UNK         0.5104 
     39 O          26.1704  -51.7684  -54.4562 O.2       7 UNK        -0.5100 
     40 CA         27.6953  -50.4796  -53.1383 C.3       6 UNK         0.0396 
     41 CB         28.4287  -51.4084  -52.1584 C.3       6 UNK        -0.1801 
     42 N          28.5209  -49.3023  -53.4150 N.am      6 UNK        -0.4747 
     43 C          28.0914  -48.2119  -54.0684 C.2       6 UNK         0.5012 
     44 O          26.9298  -48.0622  -54.4468 O.2       6 UNK        -0.5003 
     45 CA         29.1414  -47.1205  -54.3671 C.3       5 UNK         0.0782 
     46 C46        29.3146  -46.1759  -53.1502 C.3       11 UNK        -0.0868 
     47 S47        28.0356  -44.8797  -53.0828 S.3       11 UNK        -0.2515 
     48 C48        29.0210  -43.4155  -52.6167 C.3       11 UNK         0.0199 
     49 N          30.4276  -47.6766  -54.8069 N.am      5 UNK        -0.4607 
     50 C          30.6130  -48.4738  -55.8695 C.2       4 UNK         0.5031 
     51 O          29.7147  -48.8335  -56.6262 O.2       4 UNK        -0.5119 
     52 CA         32.0279  -49.0393  -56.0799 C.3       4 UNK         0.0263 
     53 CB         32.9685  -47.9858  -56.6866 C.3       4 UNK        -0.1967 
     54 N          32.5933  -49.5746  -54.8394 N.am      4 UNK        -0.4237 
     55 C          32.0582  -50.5914  -54.1459 C.2       3 UNK         0.4908 
     56 O          31.1016  -51.2601  -54.5378 O.2       3 UNK        -0.5102 
     57 CA         32.6475  -50.8700  -52.7547 C.3       3 UNK         0.0241 
     58 CB         33.8936  -51.7655  -52.8454 C.3       3 UNK        -0.1971 
     59 N          32.9634  -49.6300  -52.0405 N.am      3 UNK        -0.4139 
     60 C          32.0397  -48.7824  -51.5630 C.2       2 UNK         0.5016 
     61 O          30.8283  -48.9893  -51.6230 O.2       2 UNK        -0.5319 
     62 CA         32.5472  -47.4664  -50.9477 C.3       2 UNK         0.0286 
     63 CB         32.8800  -47.6574  -49.4599 C.3       2 UNK        -0.1963 
     64 N          33.7153  -46.9212  -51.6461 N.am      2 UNK        -0.4790 
     65 C          33.6880  -46.4432  -52.8999 C.2       1 UNK         0.5024 
     66 O          32.6635  -46.3758  -53.5740 O.2       1 UNK        -0.4888 
     67 H67        37.9324  -49.4416  -53.8014 H         1 UNK         0.0892 
     68 H68        38.1082  -48.3840  -52.3992 H         1 UNK         0.0892 
     69 H69        37.1011  -49.8301  -52.2934 H         1 UNK         0.0892 
     70 H70        36.8948  -46.5017  -52.6183 H         1 UNK         0.3107 
     71 H71        34.9300  -46.1767  -54.6025 H         1 UNK         0.0773 
     72 H72        34.9278  -44.1853  -52.3243 H         1 UNK         0.0680 
     73 H73        36.4478  -44.4114  -53.1229 H         1 UNK         0.0680 
     74 H74        34.0857  -41.2560  -54.2521 H         1 UNK         0.0650 
     75 H75        33.9127  -42.2262  -52.8201 H         1 UNK         0.0650 
     76 H76        31.7152  -43.0472  -52.3094 H         1 UNK         0.1397 
     77 H77        28.6080  -42.9009  -55.2655 H         1 UNK         0.1363 
     78 H78        32.6471  -41.9639  -56.3522 H         1 UNK         0.1355 
     79 H79        29.1787  -41.6595  -57.3932 H         1 UNK         0.0707 
     80 H80        30.8372  -41.5686  -57.9395 H         1 UNK         0.0707 
     81 H81        29.1636  -42.4521  -60.0957 H         1 UNK         0.1034 
     82 H82        28.8732  -44.1516  -60.3494 H         1 UNK         0.1034 
     83 H83        27.2686  -42.2510  -58.5881 H         1 UNK         0.0482 
     84 H84        25.2653  -44.6043  -60.0563 H         1 UNK         0.3460 
     85 H85        24.8253  -43.6502  -61.4527 H         1 UNK         0.3460 
     86 H86        27.4838  -45.0723  -58.1904 H         1 UNK         0.2989 
     87 H87        26.5441  -45.4254  -55.8180 H         1 UNK         0.0559 
     88 H88        24.3762  -46.0826  -54.8327 H         1 UNK         0.0848 
     89 H89        23.5043  -45.2280  -56.1086 H         1 UNK         0.0848 
     90 H90        24.4919  -44.3378  -54.9567 H         1 UNK         0.0848 
     91 H91        24.6674  -47.1130  -57.2083 H         1 UNK         0.3144 
     92 H92        25.2944  -48.9769  -58.1213 H         1 UNK         0.0727 
     93 H93        26.3437  -49.6806  -60.2706 H         1 UNK         0.0790 
     94 H94        27.6377  -48.5028  -60.0553 H         1 UNK         0.0790 
     95 H95        25.9851  -47.9620  -60.3217 H         1 UNK         0.0790 
     96 H96        28.0290  -49.3239  -57.1902 H         1 UNK         0.3215 
     97 H97        27.4189  -52.8420  -56.5667 H         1 UNK         0.0863 
     98 H98        29.7554  -51.2109  -57.6941 H         1 UNK         0.0808 
     99 H99        29.0318  -52.6318  -58.4287 H         1 UNK         0.0808 
    100 H100       29.8813  -52.7759  -56.8972 H         1 UNK         0.0808 
    101 H101       29.0779  -50.8547  -55.2804 H         1 UNK         0.3118 
    102 H102       26.7815  -50.1333  -52.6511 H         1 UNK         0.0546 
    103 H103       28.6766  -50.8915  -51.2311 H         1 UNK         0.0828 
    104 H104       29.3547  -51.7956  -52.5829 H         1 UNK         0.0828 
    105 H105       27.8077  -52.2659  -51.8962 H         1 UNK         0.0828 
    106 H106       29.4738  -49.3148  -53.0621 H         1 UNK         0.3005 
    107 H107       28.7693  -46.5388  -55.2137 H         1 UNK         0.1257 
    108 H108       30.2808  -45.6785  -53.2068 H         1 UNK         0.0775 
    109 H109       29.3256  -46.7227  -52.2054 H         1 UNK         0.0775 
    110 H110       28.3446  -42.5749  -52.4564 H         1 UNK         0.0840 
    111 H111       29.5025  -43.6087  -51.6568 H         1 UNK         0.0840 
    112 H112       31.2428  -47.3893  -54.2716 H         1 UNK         0.2987 
    113 H113       31.9518  -49.8681  -56.7870 H         1 UNK         0.0785 
    114 H114       33.9649  -48.3940  -56.8567 H         1 UNK         0.0798 
    115 H115       32.5895  -47.6385  -57.6486 H         1 UNK         0.0798 
    116 H116       33.0710  -47.1104  -56.0465 H         1 UNK         0.0798 
    117 H117       33.4318  -49.1267  -54.4778 H         1 UNK         0.3079 
    118 H118       31.8912  -51.4064  -52.1774 H         1 UNK         0.0794 
    119 H119       34.2869  -51.9994  -51.8561 H         1 UNK         0.0786 
    120 H120       34.6923  -51.3007  -53.4233 H         1 UNK         0.0786 
    121 H121       33.6536  -52.7129  -53.3300 H         1 UNK         0.0786 
    122 H122       33.9354  -49.3608  -51.9987 H         1 UNK         0.3032 
    123 H123       31.7369  -46.7376  -51.0254 H         1 UNK         0.1094 
    124 H124       33.7005  -48.3610  -49.3138 H         1 UNK         0.0794 
    125 H125       33.1585  -46.7133  -48.9913 H         1 UNK         0.0794 
    126 H126       32.0176  -48.0449  -48.9153 H         1 UNK         0.0794 
    127 H127       34.5993  -46.9477  -51.1583 H         1 UNK         0.3016 
@<TRIPOS>BOND
     1    1    2 1    
     2    1   67 1    
     3    1   68 1    
     4    1   69 1    
     5    2    3 2    
     6    2    4 am   BACKBONE|DICT|INTERRES
     7    4    5 1    
     8    4   70 1    
     9    5    6 1    
    10    5   65 1    
    11    5   71 1    
    12    6    7 1    
    13    6   72 1    
    14    6   73 1    
    15    7    8 1    
    16    8    9 1    
    17    8   74 1    
    18    8   75 1    
    19    9   10 ar   
    20    9   14 ar   
    21   10   11 ar   
    22   10   76 1    
    23   11   12 ar   
    24   11   48 1    
    25   12   13 ar   
    26   12   77 1    
    27   13   14 ar   
    28   13   15 1    
    29   14   78 1    
    30   15   16 1    
    31   15   79 1    
    32   15   80 1    
    33   16   17 1    
    34   17   18 1    
    35   17   81 1    
    36   17   82 1    
    37   18   19 1    
    38   18   22 1    
    39   18   83 1    
    40   19   20 am   BACKBONE|DICT|INTERRES
    41   19   21 2    
    42   20   84 1    
    43   20   85 1    
    44   22   23 am   BACKBONE|DICT|INTERRES
    45   22   86 1    
    46   23   24 2    
    47   23   25 1    
    48   25   26 1    
    49   25   27 1    
    50   25   87 1    
    51   26   88 1    
    52   26   89 1    
    53   26   90 1    
    54   27   28 am   BACKBONE|DICT|INTERRES
    55   27   91 1    
    56   28   29 2    
    57   28   30 1    
    58   30   31 1    
    59   30   32 1    
    60   30   92 1    
    61   31   93 1    
    62   31   94 1    
    63   31   95 1    
    64   32   33 am   BACKBONE|DICT|INTERRES
    65   32   96 1    
    66   33   34 2    
    67   33   35 1    
    68   35   36 1    
    69   35   37 1    
    70   35   97 1    
    71   36   98 1    
    72   36   99 1    
    73   36  100 1    
    74   37   38 am   BACKBONE|DICT|INTERRES
    75   37  101 1    
    76   38   39 2    
    77   38   40 1    
    78   40   41 1    
    79   40   42 1    
    80   40  102 1    
    81   41  103 1    
    82   41  104 1    
    83   41  105 1    
    84   42   43 am   BACKBONE|DICT|INTERRES
    85   42  106 1    
    86   43   44 2    
    87   43   45 1    
    88   45   46 1    
    89   45   49 1    
    90   45  107 1    
    91   46   47 1    
    92   46  108 1    
    93   46  109 1    
    94   47   48 1    
    95   48  110 1    
    96   48  111 1    
    97   49   50 am   BACKBONE|DICT|INTERRES
    98   49  112 1    
    99   50   51 2    
   100   50   52 1    
   101   52   53 1    
   102   52   54 1    
   103   52  113 1    
   104   53  114 1    
   105   53  115 1    
   106   53  116 1    
   107   54   55 am   BACKBONE|DICT|INTERRES
   108   54  117 1    
   109   55   56 2    
   110   55   57 1    
   111   57   58 1    
   112   57   59 1    
   113   57  118 1    
   114   58  119 1    
   115   58  120 1    
   116   58  121 1    
   117   59   60 am   BACKBONE|DICT|INTERRES
   118   59  122 1    
   119   60   61 2    
   120   60   62 1    
   121   62   63 1    
   122   62   64 1    
   123   62  123 1    
   124   63  124 1    
   125   63  125 1    
   126   63  126 1    
   127   64   65 am   BACKBONE|DICT|INTERRES
   128   64  127 1    
   129   65   66 2    
@<TRIPOS>SUBSTRUCTURE
     1 UNK         1 GROUP             0       ****    0 ROOT    
