@<TRIPOS>MOLECULE
3R134
127   129    1
SMALL
USER_CHARGES


@<TRIPOS>ATOM
      1 CA         36.3298  -42.0531  -52.2266 C.3       0 UNK        -0.1968 
      2 C          35.7541  -43.4441  -52.4443 C.2       0 UNK         0.4852 
      3 O          34.6827  -43.7473  -51.9167 O.2       0 UNK        -0.5359 
      4 N          36.4582  -44.2863  -53.2152 N.am      1 UNK        -0.4300 
      5 CA         36.1367  -45.6748  -53.5910 C.3       1 UNK         0.0863 
      6 C6         34.7966  -45.8473  -54.3560 C.3       11 UNK        -0.0953 
      7 S7         34.7040  -44.8646  -55.8932 S.3       11 UNK        -0.2369 
      8 C8         33.5616  -43.5133  -55.4504 C.3       11 UNK         0.0226 
      9 C9         32.1302  -43.9952  -55.2623 C.ar      11 UNK        -0.0699 
     10 C10        31.6422  -44.2775  -53.9826 C.ar      11 UNK        -0.0804 
     11 C11        30.3322  -44.7297  -53.8046 C.ar      11 UNK        -0.0871 
     12 C12        29.4933  -44.8577  -54.9145 C.ar      11 UNK        -0.1008 
     13 C13        29.9694  -44.5802  -56.1984 C.ar      11 UNK        -0.0735 
     14 C14        31.2888  -44.1506  -56.3678 C.ar      11 UNK        -0.0945 
     15 C15        29.0710  -44.7919  -57.4053 C.3       11 UNK         0.0169 
     16 S16        28.4490  -43.2322  -58.1148 S.3       11 UNK        -0.2669 
     17 C17        27.4303  -42.5243  -56.7672 C.3       11 UNK        -0.0850 
     18 CA         25.9160  -42.8507  -56.8616 C.3       10 UNK         0.0855 
     19 C          25.2268  -42.1651  -58.0804 C.2       10 UNK         0.5543 
     20 N          24.6193  -42.8948  -59.0099 N.am      10 UNK        -0.7343 
     21 O          25.2311  -40.9400  -58.1733 O.2       10 UNK        -0.5027 
     22 N          25.6779  -44.2946  -56.7476 N.am      10 UNK        -0.4495 
     23 C          24.5318  -44.8660  -56.3599 C.2       10 UNK         0.4903 
     24 O          23.5633  -44.2363  -55.9324 O.2       10 UNK        -0.4860 
     25 CA         24.4651  -46.4032  -56.4752 C.3       9 UNK         0.0227 
     26 CB         23.0209  -46.9296  -56.6112 C.3       9 UNK        -0.1964 
     27 N          25.3216  -46.9559  -57.5366 N.am      9 UNK        -0.4231 
     28 C          25.2527  -46.6887  -58.8526 C.2       9 UNK         0.5014 
     29 O          24.4537  -45.8854  -59.3361 O.2       9 UNK        -0.5270 
     30 CA         26.2301  -47.4029  -59.8018 C.3       8 UNK         0.0284 
     31 CB         27.2570  -46.4220  -60.3931 C.3       8 UNK        -0.1977 
     32 N          26.9252  -48.5388  -59.1866 N.am      8 UNK        -0.4342 
     33 C          27.1347  -49.7154  -59.7950 C.2       8 UNK         0.5039 
     34 O          26.8207  -49.9510  -60.9629 O.2       8 UNK        -0.5547 
     35 CA         27.7950  -50.8331  -58.9647 C.3       7 UNK         0.0281 
     36 CB         29.3125  -50.8544  -59.2069 C.3       7 UNK        -0.1963 
     37 N          27.5297  -50.7267  -57.5265 N.am      7 UNK        -0.4444 
     38 C          26.3139  -50.8401  -56.9678 C.2       7 UNK         0.5104 
     39 O          25.3016  -51.1341  -57.6037 O.2       7 UNK        -0.5100 
     40 CA         26.1785  -50.5630  -55.4570 C.3       6 UNK         0.0396 
     41 CB         25.8443  -51.8599  -54.7019 C.3       6 UNK        -0.1801 
     42 N          27.3458  -49.9388  -54.8271 N.am      6 UNK        -0.4747 
     43 C          27.8587  -48.7338  -55.1164 C.2       6 UNK         0.5012 
     44 O          27.4220  -47.9982  -56.0043 O.2       6 UNK        -0.5003 
     45 CA         29.1053  -48.3149  -54.3098 C.3       5 UNK         0.0782 
     46 C46        28.6698  -47.6129  -52.9991 C.3       11 UNK        -0.0868 
     47 S47        30.0666  -46.8772  -52.0821 S.3       11 UNK        -0.2515 
     48 C48        29.8364  -45.0991  -52.4152 C.3       11 UNK         0.0199 
     49 N          30.0203  -49.4375  -54.0543 N.am      5 UNK        -0.4607 
     50 C          30.5862  -50.2101  -54.9936 C.2       4 UNK         0.5031 
     51 O          30.3607  -50.0832  -56.1978 O.2       4 UNK        -0.5119 
     52 CA         31.5158  -51.3414  -54.5100 C.3       4 UNK         0.0263 
     53 CB         32.5571  -51.7443  -55.5769 C.3       4 UNK        -0.1967 
     54 N          32.1648  -51.0875  -53.2151 N.am      4 UNK        -0.4237 
     55 C          33.0406  -50.1143  -52.9241 C.2       3 UNK         0.4908 
     56 O          33.3930  -49.2307  -53.7102 O.2       3 UNK        -0.5102 
     57 CA         33.6451  -50.1617  -51.5158 C.3       3 UNK         0.0241 
     58 CB         34.6599  -51.3182  -51.3973 C.3       3 UNK        -0.1971 
     59 N          34.3005  -48.8855  -51.2523 N.am      3 UNK        -0.4139 
     60 C          34.7270  -48.4344  -50.0689 C.2       2 UNK         0.5016 
     61 O          34.5814  -49.0594  -49.0167 O.2       2 UNK        -0.5319 
     62 CA         35.4098  -47.0510  -50.0228 C.3       2 UNK         0.0286 
     63 CB         36.7895  -47.1237  -49.3358 C.3       2 UNK        -0.1963 
     64 N          35.5067  -46.3441  -51.3097 N.am      2 UNK        -0.4790 
     65 C          36.2190  -46.6569  -52.4018 C.2       1 UNK         0.5024 
     66 O          36.9158  -47.6667  -52.5009 O.2       1 UNK        -0.4888 
     67 H67        35.6284  -41.2989  -52.5824 H         1 UNK         0.0892 
     68 H68        36.5047  -41.8824  -51.1647 H         1 UNK         0.0892 
     69 H69        37.2737  -41.9135  -52.7532 H         1 UNK         0.0892 
     70 H70        37.3372  -43.9574  -53.5901 H         1 UNK         0.3107 
     71 H71        36.9326  -45.9707  -54.2767 H         1 UNK         0.0773 
     72 H72        33.9517  -45.6206  -53.7094 H         1 UNK         0.0680 
     73 H73        34.6665  -46.8918  -54.6457 H         1 UNK         0.0680 
     74 H74        33.5886  -42.7652  -56.2440 H         1 UNK         0.0650 
     75 H75        33.9137  -43.0067  -54.5530 H         1 UNK         0.0650 
     76 H76        32.2889  -44.1616  -53.1234 H         1 UNK         0.1397 
     77 H77        28.4756  -45.1982  -54.7842 H         1 UNK         0.1363 
     78 H78        31.6615  -43.9408  -57.3612 H         1 UNK         0.1355 
     79 H79        29.6407  -45.3178  -58.1726 H         1 UNK         0.0707 
     80 H80        28.2353  -45.4451  -57.1533 H         1 UNK         0.0707 
     81 H81        27.8154  -42.8503  -55.8017 H         1 UNK         0.1034 
     82 H82        27.5774  -41.4427  -56.7724 H         1 UNK         0.1034 
     83 H83        25.4523  -42.3910  -55.9866 H         1 UNK         0.0482 
     84 H84        24.5987  -43.9072  -58.9554 H         1 UNK         0.3460 
     85 H85        24.1755  -42.4291  -59.7849 H         1 UNK         0.3460 
     86 H86        26.4054  -44.8868  -57.1147 H         1 UNK         0.2989 
     87 H87        24.8658  -46.7890  -55.5367 H         1 UNK         0.0559 
     88 H88        22.5288  -46.5351  -57.5007 H         1 UNK         0.0848 
     89 H89        22.4152  -46.6422  -55.7510 H         1 UNK         0.0848 
     90 H90        22.9997  -48.0178  -56.6705 H         1 UNK         0.0848 
     91 H91        26.0639  -47.5522  -57.1836 H         1 UNK         0.3144 
     92 H92        25.6073  -47.7656  -60.6224 H         1 UNK         0.0727 
     93 H93        27.9530  -46.0644  -59.6380 H         1 UNK         0.0790 
     94 H94        26.7676  -45.5488  -60.8273 H         1 UNK         0.0790 
     95 H95        27.8389  -46.8926  -61.1857 H         1 UNK         0.0790 
     96 H96        27.2464  -48.4348  -58.2329 H         1 UNK         0.3215 
     97 H97        27.3810  -51.7836  -59.3084 H         1 UNK         0.0863 
     98 H98        29.7909  -51.6720  -58.6673 H         1 UNK         0.0808 
     99 H99        29.7846  -49.9234  -58.8903 H         1 UNK         0.0808 
    100 H100       29.5368  -50.9896  -60.2658 H         1 UNK         0.0808 
    101 H101       28.3194  -50.4912  -56.9359 H         1 UNK         0.3118 
    102 H102       25.3394  -49.8744  -55.3377 H         1 UNK         0.0546 
    103 H103       26.6570  -52.5845  -54.7654 H         1 UNK         0.0828 
    104 H104       24.9525  -52.3350  -55.1133 H         1 UNK         0.0828 
    105 H105       25.6454  -51.6672  -53.6475 H         1 UNK         0.0828 
    106 H106       27.7988  -50.4743  -54.1003 H         1 UNK         0.3005 
    107 H107       29.6521  -47.6015  -54.9290 H         1 UNK         0.1257 
    108 H108       28.1764  -48.3251  -52.3349 H         1 UNK         0.0775 
    109 H109       27.9266  -46.8389  -53.1979 H         1 UNK         0.0775 
    110 H110       28.7880  -44.8222  -52.2937 H         1 UNK         0.0840 
    111 H111       30.3850  -44.5304  -51.6626 H         1 UNK         0.0840 
    112 H112       30.2725  -49.5918  -53.0894 H         1 UNK         0.2987 
    113 H113       30.8656  -52.2034  -54.3536 H         1 UNK         0.0785 
    114 H114       32.0709  -52.0840  -56.4924 H         1 UNK         0.0798 
    115 H115       33.1894  -52.5602  -55.2272 H         1 UNK         0.0798 
    116 H116       33.2043  -50.9088  -55.8456 H         1 UNK         0.0798 
    117 H117       31.9423  -51.7531  -52.4869 H         1 UNK         0.3079 
    118 H118       32.8372  -50.2981  -50.7939 H         1 UNK         0.0794 
    119 H119       34.1950  -52.2804  -51.6153 H         1 UNK         0.0786 
    120 H120       35.0750  -51.3877  -50.3919 H         1 UNK         0.0786 
    121 H121       35.4913  -51.1922  -52.0923 H         1 UNK         0.0786 
    122 H122       34.4268  -48.3120  -52.0774 H         1 UNK         0.3032 
    123 H123       34.7658  -46.4309  -49.3968 H         1 UNK         0.1094 
    124 H124       37.4777  -47.7763  -49.8737 H         1 UNK         0.0794 
    125 H125       37.2487  -46.1379  -49.2617 H         1 UNK         0.0794 
    126 H126       36.7019  -47.5146  -48.3213 H         1 UNK         0.0794 
    127 H127       34.9894  -45.4665  -51.3653 H         1 UNK         0.3016 
@<TRIPOS>BOND
     1    1    2 1    
     2    1   67 1    
     3    1   68 1    
     4    1   69 1    
     5    2    3 2    
     6    2    4 am   BACKBONE|DICT|INTERRES
     7    4    5 1    
     8    4   70 1    
     9    5    6 1    
    10    5   65 1    
    11    5   71 1    
    12    6    7 1    
    13    6   72 1    
    14    6   73 1    
    15    7    8 1    
    16    8    9 1    
    17    8   74 1    
    18    8   75 1    
    19    9   10 ar   
    20    9   14 ar   
    21   10   11 ar   
    22   10   76 1    
    23   11   12 ar   
    24   11   48 1    
    25   12   13 ar   
    26   12   77 1    
    27   13   14 ar   
    28   13   15 1    
    29   14   78 1    
    30   15   16 1    
    31   15   79 1    
    32   15   80 1    
    33   16   17 1    
    34   17   18 1    
    35   17   81 1    
    36   17   82 1    
    37   18   19 1    
    38   18   22 1    
    39   18   83 1    
    40   19   20 am   BACKBONE|DICT|INTERRES
    41   19   21 2    
    42   20   84 1    
    43   20   85 1    
    44   22   23 am   BACKBONE|DICT|INTERRES
    45   22   86 1    
    46   23   24 2    
    47   23   25 1    
    48   25   26 1    
    49   25   27 1    
    50   25   87 1    
    51   26   88 1    
    52   26   89 1    
    53   26   90 1    
    54   27   28 am   BACKBONE|DICT|INTERRES
    55   27   91 1    
    56   28   29 2    
    57   28   30 1    
    58   30   31 1    
    59   30   32 1    
    60   30   92 1    
    61   31   93 1    
    62   31   94 1    
    63   31   95 1    
    64   32   33 am   BACKBONE|DICT|INTERRES
    65   32   96 1    
    66   33   34 2    
    67   33   35 1    
    68   35   36 1    
    69   35   37 1    
    70   35   97 1    
    71   36   98 1    
    72   36   99 1    
    73   36  100 1    
    74   37   38 am   BACKBONE|DICT|INTERRES
    75   37  101 1    
    76   38   39 2    
    77   38   40 1    
    78   40   41 1    
    79   40   42 1    
    80   40  102 1    
    81   41  103 1    
    82   41  104 1    
    83   41  105 1    
    84   42   43 am   BACKBONE|DICT|INTERRES
    85   42  106 1    
    86   43   44 2    
    87   43   45 1    
    88   45   46 1    
    89   45   49 1    
    90   45  107 1    
    91   46   47 1    
    92   46  108 1    
    93   46  109 1    
    94   47   48 1    
    95   48  110 1    
    96   48  111 1    
    97   49   50 am   BACKBONE|DICT|INTERRES
    98   49  112 1    
    99   50   51 2    
   100   50   52 1    
   101   52   53 1    
   102   52   54 1    
   103   52  113 1    
   104   53  114 1    
   105   53  115 1    
   106   53  116 1    
   107   54   55 am   BACKBONE|DICT|INTERRES
   108   54  117 1    
   109   55   56 2    
   110   55   57 1    
   111   57   58 1    
   112   57   59 1    
   113   57  118 1    
   114   58  119 1    
   115   58  120 1    
   116   58  121 1    
   117   59   60 am   BACKBONE|DICT|INTERRES
   118   59  122 1    
   119   60   61 2    
   120   60   62 1    
   121   62   63 1    
   122   62   64 1    
   123   62  123 1    
   124   63  124 1    
   125   63  125 1    
   126   63  126 1    
   127   64   65 am   BACKBONE|DICT|INTERRES
   128   64  127 1    
   129   65   66 2    
@<TRIPOS>SUBSTRUCTURE
     1 UNK         1 GROUP             0       ****    0 ROOT    
