@<TRIPOS>MOLECULE
3R134
127   129    1
SMALL
USER_CHARGES


@<TRIPOS>ATOM
      1 CA         34.8894  -52.3646  -55.3184 C.3       0 UNK        -0.1968 
      2 C          34.1921  -51.0681  -54.9383 C.2       0 UNK         0.4852 
      3 O          33.7320  -50.9336  -53.8034 O.2       0 UNK        -0.5359 
      4 N          34.1276  -50.1027  -55.8676 N.am      1 UNK        -0.4300 
      5 CA         33.4476  -48.8100  -55.7018 C.3       1 UNK         0.0863 
      6 C6         33.4071  -48.0140  -57.0302 C.3       11 UNK        -0.0953 
      7 S7         32.0251  -46.8271  -57.0726 S.3       11 UNK        -0.2369 
      8 C8         32.9017  -45.2468  -56.8614 C.3       11 UNK         0.0226 
      9 C9         32.0019  -44.2237  -56.1903 C.ar      11 UNK        -0.0699 
     10 C10        31.9929  -44.1160  -54.7972 C.ar      11 UNK        -0.0804 
     11 C11        31.1261  -43.2262  -54.1578 C.ar      11 UNK        -0.0871 
     12 C12        30.2923  -42.4103  -54.9274 C.ar      11 UNK        -0.1008 
     13 C13        30.3024  -42.4977  -56.3226 C.ar      11 UNK        -0.0735 
     14 C14        31.1612  -43.4054  -56.9504 C.ar      11 UNK        -0.0945 
     15 C15        29.3731  -41.6200  -57.1479 C.3       11 UNK         0.0169 
     16 S16        27.8805  -42.5184  -57.6745 S.3       11 UNK        -0.2669 
     17 C17        27.1140  -42.9343  -56.0666 C.3       11 UNK        -0.0850 
     18 CA         25.6325  -43.3807  -56.1726 C.3       10 UNK         0.0855 
     19 C          24.6736  -42.1925  -56.4771 C.2       10 UNK         0.5543 
     20 N          23.9301  -42.2010  -57.5771 N.am      10 UNK        -0.7343 
     21 O          24.5921  -41.2535  -55.6890 O.2       10 UNK        -0.5027 
     22 N          25.4959  -44.5366  -57.0681 N.am      10 UNK        -0.4495 
     23 C          24.5225  -45.4514  -57.0339 C.2       10 UNK         0.4903 
     24 O          23.6061  -45.4391  -56.2120 O.2       10 UNK        -0.4860 
     25 CA         24.5798  -46.5954  -58.0658 C.3       9 UNK         0.0227 
     26 CB         23.6631  -46.3072  -59.2710 C.3       9 UNK        -0.1964 
     27 N          25.9391  -46.9766  -58.4854 N.am      9 UNK        -0.4231 
     28 C          26.8238  -46.2836  -59.2212 C.2       9 UNK         0.5014 
     29 O          26.5638  -45.1951  -59.7339 O.2       9 UNK        -0.5270 
     30 CA         28.2451  -46.8604  -59.3712 C.3       8 UNK         0.0284 
     31 CB         29.3109  -45.7609  -59.2170 C.3       8 UNK        -0.1977 
     32 N          28.5111  -47.9104  -58.3847 N.am      8 UNK        -0.4342 
     33 C          28.5616  -49.2238  -58.6485 C.2       8 UNK         0.5039 
     34 O          28.4802  -49.6988  -59.7818 O.2       8 UNK        -0.5547 
     35 CA         28.6819  -50.1815  -57.4454 C.3       7 UNK         0.0281 
     36 CB         30.1514  -50.5682  -57.2177 C.3       7 UNK        -0.1963 
     37 N          28.1175  -49.6401  -56.2025 N.am      7 UNK        -0.4444 
     38 C          26.8301  -49.2925  -56.0402 C.2       7 UNK         0.5104 
     39 O          25.9703  -49.4829  -56.8999 O.2       7 UNK        -0.5100 
     40 CA         26.4221  -48.5567  -54.7480 C.3       6 UNK         0.0396 
     41 CB         25.6664  -49.5092  -53.8088 C.3       6 UNK        -0.1801 
     42 N          27.5311  -47.9438  -54.0141 N.am      6 UNK        -0.4747 
     43 C          28.3910  -47.0272  -54.4861 C.2       6 UNK         0.5012 
     44 O          28.3014  -46.5248  -55.6075 O.2       6 UNK        -0.5003 
     45 CA         29.5843  -46.6690  -53.5705 C.3       5 UNK         0.0782 
     46 C46        29.2728  -45.3792  -52.7696 C.3       11 UNK        -0.0868 
     47 S47        30.7372  -44.7776  -51.8569 S.3       11 UNK        -0.2515 
     48 C48        31.0673  -43.1589  -52.6363 C.3       11 UNK         0.0199 
     49 N          29.9909  -47.7675  -52.6730 N.am      5 UNK        -0.4607 
     50 C          30.3052  -49.0180  -53.0374 C.2       4 UNK         0.5031 
     51 O          30.2787  -49.4192  -54.2009 O.2       4 UNK        -0.5119 
     52 CA         30.6618  -49.9888  -51.9074 C.3       4 UNK         0.0263 
     53 CB         30.2196  -51.4276  -52.2336 C.3       4 UNK        -0.1967 
     54 N          32.1057  -49.9779  -51.6952 N.am      4 UNK        -0.4237 
     55 C          32.7102  -49.6860  -50.5361 C.2       3 UNK         0.4908 
     56 O          32.1121  -49.3327  -49.5189 O.2       3 UNK        -0.5102 
     57 CA         34.2392  -49.8199  -50.4919 C.3       3 UNK         0.0241 
     58 CB         34.6512  -51.2989  -50.3955 C.3       3 UNK        -0.1971 
     59 N          34.8559  -49.2179  -51.6728 N.am      3 UNK        -0.4139 
     60 C          35.4200  -48.0020  -51.7034 C.2       2 UNK         0.5016 
     61 O          35.5437  -47.2777  -50.7147 O.2       2 UNK        -0.5319 
     62 CA         35.9444  -47.4975  -53.0632 C.3       2 UNK         0.0286 
     63 CB         37.4627  -47.7147  -53.1684 C.3       2 UNK        -0.1963 
     64 N          35.2909  -48.1207  -54.2179 N.am      2 UNK        -0.4790 
     65 C          33.9967  -47.9623  -54.5322 C.2       1 UNK         0.5024 
     66 O          33.2392  -47.2207  -53.9087 O.2       1 UNK        -0.4888 
     67 H67        35.7328  -52.5452  -54.6526 H         1 UNK         0.0892 
     68 H68        34.1970  -53.2008  -55.2256 H         1 UNK         0.0892 
     69 H69        35.2620  -52.3440  -56.3423 H         1 UNK         0.0892 
     70 H70        34.5378  -50.2683  -56.7759 H         1 UNK         0.3107 
     71 H71        32.4226  -49.0615  -55.4346 H         1 UNK         0.0773 
     72 H72        34.3571  -47.5156  -57.2323 H         1 UNK         0.0680 
     73 H73        33.2455  -48.6951  -57.8672 H         1 UNK         0.0680 
     74 H74        33.2362  -44.8853  -57.8347 H         1 UNK         0.0650 
     75 H75        33.7990  -45.3928  -56.2583 H         1 UNK         0.0650 
     76 H76        32.6344  -44.7530  -54.2044 H         1 UNK         0.1397 
     77 H77        29.6200  -41.7169  -54.4408 H         1 UNK         0.1363 
     78 H78        31.1583  -43.4898  -58.0285 H         1 UNK         0.1355 
     79 H79        29.0812  -40.7309  -56.5866 H         1 UNK         0.0707 
     80 H80        29.8999  -41.2618  -58.0335 H         1 UNK         0.0707 
     81 H81        27.6987  -43.7404  -55.6199 H         1 UNK         0.1034 
     82 H82        27.2109  -42.0862  -55.3862 H         1 UNK         0.1034 
     83 H83        25.3451  -43.7233  -55.1767 H         1 UNK         0.0482 
     84 H84        24.0014  -42.9648  -58.2295 H         1 UNK         0.3460 
     85 H85        23.3079  -41.4302  -57.7623 H         1 UNK         0.3460 
     86 H86        26.1660  -44.5834  -57.8279 H         1 UNK         0.2989 
     87 H87        24.1798  -47.4767  -57.5623 H         1 UNK         0.0559 
     88 H88        22.6331  -46.1556  -58.9457 H         1 UNK         0.0848 
     89 H89        23.6605  -47.1390  -59.9753 H         1 UNK         0.0848 
     90 H90        23.9633  -45.4098  -59.8122 H         1 UNK         0.0848 
     91 H91        26.2458  -47.8672  -58.1080 H         1 UNK         0.3144 
     92 H92        28.3162  -47.2588  -60.3850 H         1 UNK         0.0727 
     93 H93        29.3003  -45.3339  -58.2131 H         1 UNK         0.0790 
     94 H94        29.1516  -44.9440  -59.9220 H         1 UNK         0.0790 
     95 H95        30.3097  -46.1528  -59.4063 H         1 UNK         0.0790 
     96 H96        28.5814  -47.6004  -57.4195 H         1 UNK         0.3215 
     97 H97        28.1236  -51.0873  -57.6911 H         1 UNK         0.0863 
     98 H98        30.2570  -51.2777  -56.3967 H         1 UNK         0.0808 
     99 H99        30.7591  -49.6942  -56.9853 H         1 UNK         0.0808 
    100 H100       30.5768  -51.0333  -58.1079 H         1 UNK         0.0808 
    101 H101       28.7765  -49.4655  -55.4471 H         1 UNK         0.3118 
    102 H102       25.7436  -47.7520  -55.0383 H         1 UNK         0.0546 
    103 H103       26.3039  -50.3230  -53.4608 H         1 UNK         0.0828 
    104 H104       24.8110  -49.9597  -54.3146 H         1 UNK         0.0828 
    105 H105       25.2811  -48.9844  -52.9345 H         1 UNK         0.0828 
    106 H106       27.7009  -48.2998  -53.0847 H         1 UNK         0.3005 
    107 H107       30.4296  -46.4740  -54.2350 H         1 UNK         0.1257 
    108 H108       28.4728  -45.5599  -52.0492 H         1 UNK         0.0775 
    109 H109       28.9048  -44.5908  -53.4284 H         1 UNK         0.0775 
    110 H110       30.2992  -42.4562  -52.3095 H         1 UNK         0.0840 
    111 H111       32.0158  -42.7727  -52.2609 H         1 UNK         0.0840 
    112 H112       30.0780  -47.5154  -51.6989 H         1 UNK         0.2987 
    113 H113       30.1283  -49.6722  -51.0087 H         1 UNK         0.0785 
    114 H114       29.1509  -51.4701  -52.4478 H         1 UNK         0.0798 
    115 H115       30.4109  -52.0980  -51.3958 H         1 UNK         0.0798 
    116 H116       30.7444  -51.8249  -53.1039 H         1 UNK         0.0798 
    117 H117       32.6717  -50.2619  -52.4946 H         1 UNK         0.3079 
    118 H118       34.5910  -49.3185  -49.5875 H         1 UNK         0.0794 
    119 H119       35.7326  -51.4017  -50.3050 H         1 UNK         0.0786 
    120 H120       34.3338  -51.8695  -51.2693 H         1 UNK         0.0786 
    121 H121       34.2063  -51.7709  -49.5184 H         1 UNK         0.0786 
    122 H122       34.7497  -49.7284  -52.5431 H         1 UNK         0.3032 
    123 H123       35.7460  -46.4239  -53.1045 H         1 UNK         0.1094 
    124 H124       37.7218  -48.7740  -53.1492 H         1 UNK         0.0794 
    125 H125       37.8632  -47.2857  -54.0871 H         1 UNK         0.0794 
    126 H126       37.9834  -47.2371  -52.3370 H         1 UNK         0.0794 
    127 H127       35.8476  -48.7523  -54.7758 H         1 UNK         0.3016 
@<TRIPOS>BOND
     1    1    2 1    
     2    1   67 1    
     3    1   68 1    
     4    1   69 1    
     5    2    3 2    
     6    2    4 am   BACKBONE|DICT|INTERRES
     7    4    5 1    
     8    4   70 1    
     9    5    6 1    
    10    5   65 1    
    11    5   71 1    
    12    6    7 1    
    13    6   72 1    
    14    6   73 1    
    15    7    8 1    
    16    8    9 1    
    17    8   74 1    
    18    8   75 1    
    19    9   10 ar   
    20    9   14 ar   
    21   10   11 ar   
    22   10   76 1    
    23   11   12 ar   
    24   11   48 1    
    25   12   13 ar   
    26   12   77 1    
    27   13   14 ar   
    28   13   15 1    
    29   14   78 1    
    30   15   16 1    
    31   15   79 1    
    32   15   80 1    
    33   16   17 1    
    34   17   18 1    
    35   17   81 1    
    36   17   82 1    
    37   18   19 1    
    38   18   22 1    
    39   18   83 1    
    40   19   20 am   BACKBONE|DICT|INTERRES
    41   19   21 2    
    42   20   84 1    
    43   20   85 1    
    44   22   23 am   BACKBONE|DICT|INTERRES
    45   22   86 1    
    46   23   24 2    
    47   23   25 1    
    48   25   26 1    
    49   25   27 1    
    50   25   87 1    
    51   26   88 1    
    52   26   89 1    
    53   26   90 1    
    54   27   28 am   BACKBONE|DICT|INTERRES
    55   27   91 1    
    56   28   29 2    
    57   28   30 1    
    58   30   31 1    
    59   30   32 1    
    60   30   92 1    
    61   31   93 1    
    62   31   94 1    
    63   31   95 1    
    64   32   33 am   BACKBONE|DICT|INTERRES
    65   32   96 1    
    66   33   34 2    
    67   33   35 1    
    68   35   36 1    
    69   35   37 1    
    70   35   97 1    
    71   36   98 1    
    72   36   99 1    
    73   36  100 1    
    74   37   38 am   BACKBONE|DICT|INTERRES
    75   37  101 1    
    76   38   39 2    
    77   38   40 1    
    78   40   41 1    
    79   40   42 1    
    80   40  102 1    
    81   41  103 1    
    82   41  104 1    
    83   41  105 1    
    84   42   43 am   BACKBONE|DICT|INTERRES
    85   42  106 1    
    86   43   44 2    
    87   43   45 1    
    88   45   46 1    
    89   45   49 1    
    90   45  107 1    
    91   46   47 1    
    92   46  108 1    
    93   46  109 1    
    94   47   48 1    
    95   48  110 1    
    96   48  111 1    
    97   49   50 am   BACKBONE|DICT|INTERRES
    98   49  112 1    
    99   50   51 2    
   100   50   52 1    
   101   52   53 1    
   102   52   54 1    
   103   52  113 1    
   104   53  114 1    
   105   53  115 1    
   106   53  116 1    
   107   54   55 am   BACKBONE|DICT|INTERRES
   108   54  117 1    
   109   55   56 2    
   110   55   57 1    
   111   57   58 1    
   112   57   59 1    
   113   57  118 1    
   114   58  119 1    
   115   58  120 1    
   116   58  121 1    
   117   59   60 am   BACKBONE|DICT|INTERRES
   118   59  122 1    
   119   60   61 2    
   120   60   62 1    
   121   62   63 1    
   122   62   64 1    
   123   62  123 1    
   124   63  124 1    
   125   63  125 1    
   126   63  126 1    
   127   64   65 am   BACKBONE|DICT|INTERRES
   128   64  127 1    
   129   65   66 2    
@<TRIPOS>SUBSTRUCTURE
     1 UNK         1 GROUP             0       ****    0 ROOT    
