@<TRIPOS>MOLECULE
3R134
127   129    1
SMALL
USER_CHARGES


@<TRIPOS>ATOM
      1 CA         26.4886  -45.8619  -51.0415 C.3       0 UNK        -0.1968 
      2 C          27.9934  -45.7857  -50.8333 C.2       0 UNK         0.4852 
      3 O          28.4443  -45.5160  -49.7188 O.2       0 UNK        -0.5359 
      4 N          28.7692  -46.0208  -51.8969 N.am      1 UNK        -0.4300 
      5 CA         30.2271  -46.1097  -51.8683 C.3       1 UNK         0.0863 
      6 C6         30.8279  -45.7788  -53.2589 C.3       11 UNK        -0.0953 
      7 S7         32.6075  -45.3802  -53.1715 S.3       11 UNK        -0.2369 
      8 C8         32.6781  -43.7105  -53.8969 C.3       11 UNK         0.0226 
      9 C9         32.3836  -43.7089  -55.3922 C.ar      11 UNK        -0.0699 
     10 C10        33.1549  -44.4846  -56.2646 C.ar      11 UNK        -0.0804 
     11 C11        32.8883  -44.4994  -57.6395 C.ar      11 UNK        -0.0871 
     12 C12        31.8651  -43.6867  -58.1368 C.ar      11 UNK        -0.1008 
     13 C13        31.0948  -42.8955  -57.2801 C.ar      11 UNK        -0.0735 
     14 C14        31.3563  -42.9129  -55.9074 C.ar      11 UNK        -0.0945 
     15 C15        29.9954  -42.0124  -57.8509 C.3       11 UNK         0.0169 
     16 S16        28.3811  -42.8548  -57.8555 S.3       11 UNK        -0.2669 
     17 C17        27.7491  -42.4924  -56.1805 C.3       11 UNK        -0.0850 
     18 CA         27.5784  -43.7469  -55.2713 C.3       10 UNK         0.0855 
     19 C          27.1326  -43.3332  -53.8415 C.2       10 UNK         0.5543 
     20 N          28.0309  -42.7388  -53.0674 N.am      10 UNK        -0.7343 
     21 O          25.9913  -43.5173  -53.4261 O.2       10 UNK        -0.5027 
     22 N          26.7454  -44.8234  -55.8389 N.am      10 UNK        -0.4495 
     23 C          25.5249  -44.7131  -56.3862 C.2       10 UNK         0.4903 
     24 O          24.9299  -43.6508  -56.5691 O.2       10 UNK        -0.4860 
     25 CA         24.8370  -46.0224  -56.8141 C.3       9 UNK         0.0227 
     26 CB         25.2057  -46.3776  -58.2635 C.3       9 UNK        -0.1964 
     27 N          25.1515  -47.1458  -55.9263 N.am      9 UNK        -0.4231 
     28 C          24.6566  -47.2703  -54.6840 C.2       9 UNK         0.5014 
     29 O          23.8227  -46.5000  -54.2063 O.2       9 UNK        -0.5270 
     30 CA         25.1484  -48.4439  -53.8122 C.3       8 UNK         0.0284 
     31 CB         24.0677  -49.5347  -53.7263 C.3       8 UNK        -0.1977 
     32 N          26.4083  -49.0604  -54.2345 N.am      8 UNK        -0.4342 
     33 C          27.5909  -48.4445  -54.3553 C.2       8 UNK         0.5039 
     34 O          27.7565  -47.2378  -54.1592 O.2       8 UNK        -0.5547 
     35 CA         28.7809  -49.3000  -54.8349 C.3       7 UNK         0.0281 
     36 CB         28.4500  -50.7920  -55.0680 C.3       7 UNK        -0.1963 
     37 N          29.4024  -48.7281  -56.0314 N.am      7 UNK        -0.4444 
     38 C          28.7752  -48.4027  -57.1738 C.2       7 UNK         0.5104 
     39 O          27.5724  -48.5856  -57.3713 O.2       7 UNK        -0.5100 
     40 CA         29.6119  -47.7611  -58.2852 C.3       6 UNK         0.0396 
     41 CB         29.6253  -46.2346  -58.1320 C.3       6 UNK        -0.1801 
     42 N          30.9793  -48.2791  -58.3201 N.am      6 UNK        -0.4747 
     43 C          31.7075  -48.4465  -59.4326 C.2       6 UNK         0.5012 
     44 O          31.3257  -48.1185  -60.5571 O.2       6 UNK        -0.5003 
     45 CA         33.0994  -49.1011  -59.2730 C.3       5 UNK         0.0782 
     46 C46        34.2388  -48.0518  -59.3511 C.3       11 UNK        -0.0868 
     47 S47        34.2975  -46.9310  -57.9075 S.3       11 UNK        -0.2515 
     48 C48        33.6874  -45.3619  -58.6172 C.3       11 UNK         0.0199 
     49 N          33.2137  -49.9303  -58.0673 N.am      5 UNK        -0.4607 
     50 C          32.5195  -51.0486  -57.8184 C.2       4 UNK         0.5031 
     51 O          31.7516  -51.5621  -58.6320 O.2       4 UNK        -0.5119 
     52 CA         32.6941  -51.7093  -56.4363 C.3       4 UNK         0.0263 
     53 CB         33.2976  -53.1168  -56.5823 C.3       4 UNK        -0.1967 
     54 N          33.5043  -50.9465  -55.4787 N.am      4 UNK        -0.4237 
     55 C          33.1575  -49.7877  -54.9034 C.2       3 UNK         0.4908 
     56 O          32.1301  -49.1604  -55.1748 O.2       3 UNK        -0.5102 
     57 CA         34.1677  -49.2100  -53.9031 C.3       3 UNK         0.0241 
     58 CB         34.9381  -48.0377  -54.5277 C.3       3 UNK        -0.1971 
     59 N          33.4970  -48.7520  -52.6893 N.am      3 UNK        -0.4139 
     60 C          33.1589  -49.5437  -51.6614 C.2       2 UNK         0.5016 
     61 O          33.3813  -50.7549  -51.6308 O.2       2 UNK        -0.5319 
     62 CA         32.4835  -48.8766  -50.4477 C.3       2 UNK         0.0286 
     63 CB         33.5106  -48.6315  -49.3302 C.3       2 UNK        -0.1963 
     64 N          31.8375  -47.6069  -50.7891 N.am      2 UNK        -0.4790 
     65 C          30.6475  -47.5162  -51.3949 C.2       1 UNK         0.5024 
     66 O          29.9234  -48.4901  -51.6153 O.2       1 UNK        -0.4888 
     67 H67        26.0096  -44.9609  -50.6593 H         1 UNK         0.0892 
     68 H68        26.2333  -45.9508  -52.0972 H         1 UNK         0.0892 
     69 H69        26.0768  -46.7218  -50.5143 H         1 UNK         0.0892 
     70 H70        28.3394  -46.3473  -52.7641 H         1 UNK         0.3107 
     71 H71        30.5947  -45.3749  -51.1484 H         1 UNK         0.0773 
     72 H72        30.3079  -44.9221  -53.6878 H         1 UNK         0.0680 
     73 H73        30.6791  -46.5983  -53.9656 H         1 UNK         0.0680 
     74 H74        31.9901  -43.0583  -53.3567 H         1 UNK         0.0650 
     75 H75        33.6774  -43.3036  -53.7378 H         1 UNK         0.0650 
     76 H76        33.9571  -45.0856  -55.8614 H         1 UNK         0.1397 
     77 H77        31.6572  -43.6755  -59.1982 H         1 UNK         0.1363 
     78 H78        30.7673  -42.2974  -55.2430 H         1 UNK         0.1355 
     79 H79        30.2415  -41.7401  -58.8784 H         1 UNK         0.0707 
     80 H80        29.9351  -41.0708  -57.3033 H         1 UNK         0.0707 
     81 H81        26.8020  -41.9622  -56.2869 H         1 UNK         0.1034 
     82 H82        28.4149  -41.7738  -55.7016 H         1 UNK         0.1034 
     83 H83        28.5624  -44.2040  -55.1626 H         1 UNK         0.0482 
     84 H84        28.9718  -42.5704  -53.3815 H         1 UNK         0.3460 
     85 H85        27.7559  -42.4493  -52.1423 H         1 UNK         0.3460 
     86 H86        27.0893  -45.7569  -55.6498 H         1 UNK         0.2989 
     87 H87        23.7579  -45.8570  -56.7798 H         1 UNK         0.0559 
     88 H88        26.2799  -46.5102  -58.3893 H         1 UNK         0.0848 
     89 H89        24.8980  -45.5844  -58.9461 H         1 UNK         0.0848 
     90 H90        24.7135  -47.2943  -58.5881 H         1 UNK         0.0848 
     91 H91        25.8451  -47.8106  -56.2517 H         1 UNK         0.3144 
     92 H92        25.3071  -48.0489  -52.8077 H         1 UNK         0.0727 
     93 H93        23.8823  -49.9958  -54.6973 H         1 UNK         0.0790 
     94 H94        23.1206  -49.1209  -53.3767 H         1 UNK         0.0790 
     95 H95        24.3501  -50.3218  -53.0268 H         1 UNK         0.0790 
     96 H96        26.3705  -50.0441  -54.4588 H         1 UNK         0.3215 
     97 H97        29.5335  -49.2484  -54.0485 H         1 UNK         0.0863 
     98 H98        27.7087  -50.9345  -55.8553 H         1 UNK         0.0808 
     99 H99        28.0756  -51.2635  -54.1585 H         1 UNK         0.0808 
    100 H100       29.3434  -51.3434  -55.3605 H         1 UNK         0.0808 
    101 H101       30.3908  -48.5309  -55.9191 H         1 UNK         0.3118 
    102 H102       29.1135  -48.0067  -59.2256 H         1 UNK         0.0546 
    103 H103       28.6119  -45.8383  -58.0679 H         1 UNK         0.0828 
    104 H104       30.1024  -45.7581  -58.9875 H         1 UNK         0.0828 
    105 H105       30.1544  -45.9224  -57.2305 H         1 UNK         0.0828 
    106 H106       31.3815  -48.5911  -57.4468 H         1 UNK         0.3005 
    107 H107       33.2120  -49.7716  -60.1282 H         1 UNK         0.1257 
    108 H108       34.1739  -47.4760  -60.2762 H         1 UNK         0.0775 
    109 H109       35.1989  -48.5676  -59.4034 H         1 UNK         0.0775 
    110 H110       34.5360  -44.7873  -58.9901 H         1 UNK         0.0840 
    111 H111       33.0609  -45.5877  -59.4814 H         1 UNK         0.0840 
    112 H112       33.8158  -49.5677  -57.3430 H         1 UNK         0.2987 
    113 H113       31.6937  -51.8118  -56.0113 H         1 UNK         0.0785 
    114 H114       33.3440  -53.6314  -55.6223 H         1 UNK         0.0798 
    115 H115       32.6944  -53.7364  -57.2476 H         1 UNK         0.0798 
    116 H116       34.3063  -53.0822  -56.9958 H         1 UNK         0.0798 
    117 H117       34.3824  -51.3685  -55.2114 H         1 UNK         0.3079 
    118 H118       34.8911  -49.9823  -53.6318 H         1 UNK         0.0794 
    119 H119       35.6449  -47.6024  -53.8212 H         1 UNK         0.0786 
    120 H120       34.2647  -47.2470  -54.8581 H         1 UNK         0.0786 
    121 H121       35.5094  -48.3640  -55.3976 H         1 UNK         0.0786 
    122 H122       33.2255  -47.7792  -52.6632 H         1 UNK         0.3032 
    123 H123       31.7285  -49.5712  -50.0714 H         1 UNK         0.1094 
    124 H124       33.0373  -48.2158  -48.4404 H         1 UNK         0.0794 
    125 H125       33.9928  -49.5639  -49.0327 H         1 UNK         0.0794 
    126 H126       34.2971  -47.9446  -49.6457 H         1 UNK         0.0794 
    127 H127       32.3760  -46.7643  -50.6403 H         1 UNK         0.3016 
@<TRIPOS>BOND
     1    1    2 1    
     2    1   67 1    
     3    1   68 1    
     4    1   69 1    
     5    2    3 2    
     6    2    4 am   BACKBONE|DICT|INTERRES
     7    4    5 1    
     8    4   70 1    
     9    5    6 1    
    10    5   65 1    
    11    5   71 1    
    12    6    7 1    
    13    6   72 1    
    14    6   73 1    
    15    7    8 1    
    16    8    9 1    
    17    8   74 1    
    18    8   75 1    
    19    9   10 ar   
    20    9   14 ar   
    21   10   11 ar   
    22   10   76 1    
    23   11   12 ar   
    24   11   48 1    
    25   12   13 ar   
    26   12   77 1    
    27   13   14 ar   
    28   13   15 1    
    29   14   78 1    
    30   15   16 1    
    31   15   79 1    
    32   15   80 1    
    33   16   17 1    
    34   17   18 1    
    35   17   81 1    
    36   17   82 1    
    37   18   19 1    
    38   18   22 1    
    39   18   83 1    
    40   19   20 am   BACKBONE|DICT|INTERRES
    41   19   21 2    
    42   20   84 1    
    43   20   85 1    
    44   22   23 am   BACKBONE|DICT|INTERRES
    45   22   86 1    
    46   23   24 2    
    47   23   25 1    
    48   25   26 1    
    49   25   27 1    
    50   25   87 1    
    51   26   88 1    
    52   26   89 1    
    53   26   90 1    
    54   27   28 am   BACKBONE|DICT|INTERRES
    55   27   91 1    
    56   28   29 2    
    57   28   30 1    
    58   30   31 1    
    59   30   32 1    
    60   30   92 1    
    61   31   93 1    
    62   31   94 1    
    63   31   95 1    
    64   32   33 am   BACKBONE|DICT|INTERRES
    65   32   96 1    
    66   33   34 2    
    67   33   35 1    
    68   35   36 1    
    69   35   37 1    
    70   35   97 1    
    71   36   98 1    
    72   36   99 1    
    73   36  100 1    
    74   37   38 am   BACKBONE|DICT|INTERRES
    75   37  101 1    
    76   38   39 2    
    77   38   40 1    
    78   40   41 1    
    79   40   42 1    
    80   40  102 1    
    81   41  103 1    
    82   41  104 1    
    83   41  105 1    
    84   42   43 am   BACKBONE|DICT|INTERRES
    85   42  106 1    
    86   43   44 2    
    87   43   45 1    
    88   45   46 1    
    89   45   49 1    
    90   45  107 1    
    91   46   47 1    
    92   46  108 1    
    93   46  109 1    
    94   47   48 1    
    95   48  110 1    
    96   48  111 1    
    97   49   50 am   BACKBONE|DICT|INTERRES
    98   49  112 1    
    99   50   51 2    
   100   50   52 1    
   101   52   53 1    
   102   52   54 1    
   103   52  113 1    
   104   53  114 1    
   105   53  115 1    
   106   53  116 1    
   107   54   55 am   BACKBONE|DICT|INTERRES
   108   54  117 1    
   109   55   56 2    
   110   55   57 1    
   111   57   58 1    
   112   57   59 1    
   113   57  118 1    
   114   58  119 1    
   115   58  120 1    
   116   58  121 1    
   117   59   60 am   BACKBONE|DICT|INTERRES
   118   59  122 1    
   119   60   61 2    
   120   60   62 1    
   121   62   63 1    
   122   62   64 1    
   123   62  123 1    
   124   63  124 1    
   125   63  125 1    
   126   63  126 1    
   127   64   65 am   BACKBONE|DICT|INTERRES
   128   64  127 1    
   129   65   66 2    
@<TRIPOS>SUBSTRUCTURE
     1 UNK         1 GROUP             0       ****    0 ROOT    
