@<TRIPOS>MOLECULE
3R134
127   129    1
SMALL
USER_CHARGES


@<TRIPOS>ATOM
      1 CA         32.1286  -47.5276  -50.2556 C.3       0 UNK        -0.1968 
      2 C          33.3402  -47.6365  -51.1697 C.2       0 UNK         0.4852 
      3 O          34.2385  -48.4350  -50.9008 O.2       0 UNK        -0.5359 
      4 N          33.3665  -46.8300  -52.2400 N.am      1 UNK        -0.4300 
      5 CA         34.4771  -46.6793  -53.1916 C.3       1 UNK         0.0863 
      6 C6         34.2033  -45.5468  -54.2112 C.3       11 UNK        -0.0953 
      7 S7         34.0427  -43.9335  -53.3817 S.3       11 UNK        -0.2369 
      8 C8         33.5649  -42.8467  -54.7678 C.3       11 UNK         0.0226 
      9 C9         32.0626  -42.5993  -54.9166 C.ar      11 UNK        -0.0699 
     10 C10        31.1873  -42.6349  -53.8225 C.ar      11 UNK        -0.0804 
     11 C11        29.8332  -42.3240  -53.9793 C.ar      11 UNK        -0.0871 
     12 C12        29.3560  -41.9455  -55.2390 C.ar      11 UNK        -0.1008 
     13 C13        30.2173  -41.8903  -56.3383 C.ar      11 UNK        -0.0735 
     14 C14        31.5627  -42.2342  -56.1713 C.ar      11 UNK        -0.0945 
     15 C15        29.7222  -41.3834  -57.6882 C.3       11 UNK         0.0169 
     16 S16        28.8843  -42.6683  -58.6701 S.3       11 UNK        -0.2669 
     17 C17        27.1562  -42.5492  -58.0882 C.3       11 UNK        -0.0850 
     18 CA         26.7145  -43.7792  -57.2451 C.3       10 UNK         0.0855 
     19 C          25.3407  -43.5686  -56.5395 C.2       10 UNK         0.5543 
     20 N          24.4811  -44.5759  -56.4327 N.am      10 UNK        -0.7343 
     21 O          25.0613  -42.4798  -56.0444 O.2       10 UNK        -0.5027 
     22 N          26.8454  -45.0666  -57.9464 N.am      10 UNK        -0.4495 
     23 C          26.2180  -45.4407  -59.0706 C.2       10 UNK         0.4903 
     24 O          25.4941  -44.7026  -59.7388 O.2       10 UNK        -0.4860 
     25 CA         26.3968  -46.9059  -59.5115 C.3       9 UNK         0.0227 
     26 CB         27.5041  -47.0159  -60.5706 C.3       9 UNK        -0.1964 
     27 N          26.6757  -47.8145  -58.3913 N.am      9 UNK        -0.4231 
     28 C          25.7851  -48.1103  -57.4298 C.2       9 UNK         0.5014 
     29 O          24.6281  -47.6857  -57.4361 O.2       9 UNK        -0.5270 
     30 CA         26.2478  -48.9481  -56.2232 C.3       8 UNK         0.0284 
     31 CB         25.2991  -50.1261  -55.9167 C.3       8 UNK        -0.1977 
     32 N          27.6547  -49.3587  -56.2719 N.am      8 UNK        -0.4342 
     33 C          28.2303  -50.3478  -56.9702 C.2       8 UNK         0.5039 
     34 O          27.6232  -51.1205  -57.7124 O.2       8 UNK        -0.5547 
     35 CA         29.7608  -50.4637  -56.8065 C.3       7 UNK         0.0281 
     36 CB         30.4208  -51.3552  -57.8800 C.3       7 UNK        -0.1963 
     37 N          30.4179  -49.1503  -56.7281 N.am      7 UNK        -0.4444 
     38 C          30.4005  -48.1925  -57.6686 C.2       7 UNK         0.5104 
     39 O          29.8539  -48.3213  -58.7636 O.2       7 UNK        -0.5100 
     40 CA         31.0405  -46.8438  -57.2791 C.3       6 UNK         0.0396 
     41 CB         30.7168  -45.7172  -58.2777 C.3       6 UNK        -0.1801 
     42 N          30.6965  -46.4279  -55.9139 N.am      6 UNK        -0.4747 
     43 C          29.4687  -46.3081  -55.3848 C.2       6 UNK         0.5012 
     44 O          28.4242  -46.4892  -56.0115 O.2       6 UNK        -0.5003 
     45 CA         29.4014  -46.0313  -53.8703 C.3       5 UNK         0.0782 
     46 C46        28.2741  -45.0227  -53.5294 C.3       11 UNK        -0.0868 
     47 S47        28.7120  -44.0352  -52.0631 S.3       11 UNK        -0.2515 
     48 C48        28.8887  -42.3648  -52.7814 C.3       11 UNK         0.0199 
     49 N          29.2275  -47.2750  -53.1046 N.am      5 UNK        -0.4607 
     50 C          29.9930  -48.3719  -53.1599 C.2       4 UNK         0.5031 
     51 O          31.0122  -48.4661  -53.8527 O.2       4 UNK        -0.5119 
     52 CA         29.5411  -49.5633  -52.3015 C.3       4 UNK         0.0263 
     53 CB         28.2351  -50.1794  -52.8320 C.3       4 UNK        -0.1967 
     54 N          30.5913  -50.5725  -52.3450 N.am      4 UNK        -0.4237 
     55 C          31.1748  -51.1765  -51.3087 C.2       3 UNK         0.4908 
     56 O          30.7589  -51.1100  -50.1518 O.2       3 UNK        -0.5102 
     57 CA         32.4819  -51.9395  -51.6002 C.3       3 UNK         0.0241 
     58 CB         32.2065  -53.4160  -51.9473 C.3       3 UNK        -0.1971 
     59 N          33.3420  -51.2822  -52.6023 N.am      3 UNK        -0.4139 
     60 C          33.1433  -51.1462  -53.9230 C.2       2 UNK         0.5016 
     61 O          32.1719  -51.6048  -54.5246 O.2       2 UNK        -0.5319 
     62 CA         34.1295  -50.2297  -54.6519 C.3       2 UNK         0.0286 
     63 CB         33.9832  -50.2549  -56.1849 C.3       2 UNK        -0.1963 
     64 N          33.9078  -48.8759  -54.1511 N.am      2 UNK        -0.4790 
     65 C          34.8753  -47.9837  -53.9140 C.2       1 UNK         0.5024 
     66 O          36.0555  -48.1651  -54.2174 O.2       1 UNK        -0.4888 
     67 H67        31.7033  -48.5121  -50.0698 H         1 UNK         0.0892 
     68 H68        32.4241  -47.1026  -49.2968 H         1 UNK         0.0892 
     69 H69        31.3493  -46.8951  -50.6804 H         1 UNK         0.0892 
     70 H70        32.6046  -46.1839  -52.3768 H         1 UNK         0.3107 
     71 H71        35.3489  -46.3909  -52.6001 H         1 UNK         0.0773 
     72 H72        33.2998  -45.7478  -54.7879 H         1 UNK         0.0680 
     73 H73        35.0213  -45.4685  -54.9305 H         1 UNK         0.0680 
     74 H74        34.0468  -41.8802  -54.6159 H         1 UNK         0.0650 
     75 H75        33.9763  -43.2493  -55.6948 H         1 UNK         0.0650 
     76 H76        31.5531  -42.8884  -52.8376 H         1 UNK         0.1397 
     77 H77        28.3169  -41.6729  -55.3618 H         1 UNK         0.1363 
     78 H78        32.2348  -42.1751  -57.0166 H         1 UNK         0.1355 
     79 H79        30.5663  -41.0130  -58.2719 H         1 UNK         0.0707 
     80 H80        29.0660  -40.5231  -57.5494 H         1 UNK         0.0707 
     81 H81        27.0405  -41.6299  -57.5127 H         1 UNK         0.1034 
     82 H82        26.5075  -42.4271  -58.9563 H         1 UNK         0.1034 
     83 H83        27.4232  -43.8528  -56.4236 H         1 UNK         0.0482 
     84 H84        23.6033  -44.4243  -55.9619 H         1 UNK         0.3460 
     85 H85        24.6864  -45.4798  -56.8357 H         1 UNK         0.3460 
     86 H86        27.4030  -45.7549  -57.4484 H         1 UNK         0.2989 
     87 H87        25.4608  -47.2285  -59.9724 H         1 UNK         0.0559 
     88 H88        27.6624  -48.0490  -60.8801 H         1 UNK         0.0848 
     89 H89        28.4537  -46.6246  -60.2058 H         1 UNK         0.0848 
     90 H90        27.2439  -46.4449  -61.4628 H         1 UNK         0.0848 
     91 H91        27.6189  -48.1767  -58.3188 H         1 UNK         0.3144 
     92 H92        26.1894  -48.2687  -55.3713 H         1 UNK         0.0727 
     93 H93        25.6357  -50.6931  -55.0489 H         1 UNK         0.0790 
     94 H94        25.2165  -50.8132  -56.7589 H         1 UNK         0.0790 
     95 H95        24.2927  -49.7672  -55.6977 H         1 UNK         0.0790 
     96 H96        28.2768  -48.7229  -55.7907 H         1 UNK         0.3215 
     97 H97        29.9228  -50.9451  -55.8412 H         1 UNK         0.0863 
     98 H98        31.4939  -51.4456  -57.7140 H         1 UNK         0.0808 
     99 H99        30.2657  -50.9653  -58.8862 H         1 UNK         0.0808 
    100 H100       30.0072  -52.3640  -57.8558 H         1 UNK         0.0808 
    101 H101       30.8552  -48.9298  -55.8382 H         1 UNK         0.3118 
    102 H102       32.1199  -47.0020  -57.2939 H         1 UNK         0.0546 
    103 H103       29.6449  -45.5339  -58.3384 H         1 UNK         0.0828 
    104 H104       31.0619  -45.9677  -59.2813 H         1 UNK         0.0828 
    105 H105       31.1987  -44.7824  -57.9920 H         1 UNK         0.0828 
    106 H106       31.4837  -46.3270  -55.2910 H         1 UNK         0.3005 
    107 H107       30.3602  -45.5937  -53.5855 H         1 UNK         0.1257 
    108 H108       28.0760  -44.3396  -54.3534 H         1 UNK         0.0775 
    109 H109       27.3250  -45.5317  -53.3522 H         1 UNK         0.0775 
    110 H110       27.8985  -41.9987  -53.0578 H         1 UNK         0.0840 
    111 H111       29.2588  -41.6866  -52.0114 H         1 UNK         0.0840 
    112 H112       28.4206  -47.2903  -52.4979 H         1 UNK         0.2987 
    113 H113       29.3936  -49.2082  -51.2794 H         1 UNK         0.0785 
    114 H114       27.8967  -50.9883  -52.1842 H         1 UNK         0.0798 
    115 H115       28.3600  -50.5936  -53.8319 H         1 UNK         0.0798 
    116 H116       27.4289  -49.4461  -52.8757 H         1 UNK         0.0798 
    117 H117       31.0349  -50.6935  -53.2523 H         1 UNK         0.3079 
    118 H118       33.0576  -51.9258  -50.6732 H         1 UNK         0.0794 
    119 H119       31.6810  -53.9129  -51.1308 H         1 UNK         0.0786 
    120 H120       33.1337  -53.9632  -52.1169 H         1 UNK         0.0786 
    121 H121       31.5865  -53.5207  -52.8380 H         1 UNK         0.0786 
    122 H122       34.1261  -50.7778  -52.2077 H         1 UNK         0.3032 
    123 H123       35.1347  -50.5738  -54.3962 H         1 UNK         0.1094 
    124 H124       33.0163  -49.8715  -56.5046 H         1 UNK         0.0794 
    125 H125       34.7544  -49.6517  -56.6640 H         1 UNK         0.0794 
    126 H126       34.0778  -51.2708  -56.5703 H         1 UNK         0.0794 
    127 H127       32.9536  -48.6575  -53.8739 H         1 UNK         0.3016 
@<TRIPOS>BOND
     1    1    2 1    
     2    1   67 1    
     3    1   68 1    
     4    1   69 1    
     5    2    3 2    
     6    2    4 am   BACKBONE|DICT|INTERRES
     7    4    5 1    
     8    4   70 1    
     9    5    6 1    
    10    5   65 1    
    11    5   71 1    
    12    6    7 1    
    13    6   72 1    
    14    6   73 1    
    15    7    8 1    
    16    8    9 1    
    17    8   74 1    
    18    8   75 1    
    19    9   10 ar   
    20    9   14 ar   
    21   10   11 ar   
    22   10   76 1    
    23   11   12 ar   
    24   11   48 1    
    25   12   13 ar   
    26   12   77 1    
    27   13   14 ar   
    28   13   15 1    
    29   14   78 1    
    30   15   16 1    
    31   15   79 1    
    32   15   80 1    
    33   16   17 1    
    34   17   18 1    
    35   17   81 1    
    36   17   82 1    
    37   18   19 1    
    38   18   22 1    
    39   18   83 1    
    40   19   20 am   BACKBONE|DICT|INTERRES
    41   19   21 2    
    42   20   84 1    
    43   20   85 1    
    44   22   23 am   BACKBONE|DICT|INTERRES
    45   22   86 1    
    46   23   24 2    
    47   23   25 1    
    48   25   26 1    
    49   25   27 1    
    50   25   87 1    
    51   26   88 1    
    52   26   89 1    
    53   26   90 1    
    54   27   28 am   BACKBONE|DICT|INTERRES
    55   27   91 1    
    56   28   29 2    
    57   28   30 1    
    58   30   31 1    
    59   30   32 1    
    60   30   92 1    
    61   31   93 1    
    62   31   94 1    
    63   31   95 1    
    64   32   33 am   BACKBONE|DICT|INTERRES
    65   32   96 1    
    66   33   34 2    
    67   33   35 1    
    68   35   36 1    
    69   35   37 1    
    70   35   97 1    
    71   36   98 1    
    72   36   99 1    
    73   36  100 1    
    74   37   38 am   BACKBONE|DICT|INTERRES
    75   37  101 1    
    76   38   39 2    
    77   38   40 1    
    78   40   41 1    
    79   40   42 1    
    80   40  102 1    
    81   41  103 1    
    82   41  104 1    
    83   41  105 1    
    84   42   43 am   BACKBONE|DICT|INTERRES
    85   42  106 1    
    86   43   44 2    
    87   43   45 1    
    88   45   46 1    
    89   45   49 1    
    90   45  107 1    
    91   46   47 1    
    92   46  108 1    
    93   46  109 1    
    94   47   48 1    
    95   48  110 1    
    96   48  111 1    
    97   49   50 am   BACKBONE|DICT|INTERRES
    98   49  112 1    
    99   50   51 2    
   100   50   52 1    
   101   52   53 1    
   102   52   54 1    
   103   52  113 1    
   104   53  114 1    
   105   53  115 1    
   106   53  116 1    
   107   54   55 am   BACKBONE|DICT|INTERRES
   108   54  117 1    
   109   55   56 2    
   110   55   57 1    
   111   57   58 1    
   112   57   59 1    
   113   57  118 1    
   114   58  119 1    
   115   58  120 1    
   116   58  121 1    
   117   59   60 am   BACKBONE|DICT|INTERRES
   118   59  122 1    
   119   60   61 2    
   120   60   62 1    
   121   62   63 1    
   122   62   64 1    
   123   62  123 1    
   124   63  124 1    
   125   63  125 1    
   126   63  126 1    
   127   64   65 am   BACKBONE|DICT|INTERRES
   128   64  127 1    
   129   65   66 2    
@<TRIPOS>SUBSTRUCTURE
     1 UNK         1 GROUP             0       ****    0 ROOT    
