@<TRIPOS>MOLECULE
3R134
127   129    1
SMALL
USER_CHARGES


@<TRIPOS>ATOM
      1 CA         30.0967  -47.5811  -48.9405 C.3       0 UNK        -0.1968 
      2 C          31.5001  -46.9935  -48.9440 C.2       0 UNK         0.4852 
      3 O          32.3980  -47.5542  -48.3141 O.2       0 UNK        -0.5359 
      4 N          31.6939  -45.8662  -49.6421 N.am      1 UNK        -0.4300 
      5 CA         32.9773  -45.1632  -49.7695 C.3       1 UNK         0.0863 
      6 C6         32.7911  -43.7115  -50.2798 C.3       11 UNK        -0.0953 
      7 S7         31.9267  -43.6031  -51.8851 S.3       11 UNK        -0.2369 
      8 C8         33.2317  -42.9162  -52.9547 C.3       11 UNK         0.0226 
      9 C9         32.7822  -42.8858  -54.4081 C.ar      11 UNK        -0.0699 
     10 C10        33.4264  -43.6726  -55.3686 C.ar      11 UNK        -0.0804 
     11 C11        32.9551  -43.7103  -56.6849 C.ar      11 UNK        -0.0871 
     12 C12        31.8664  -42.9127  -57.0498 C.ar      11 UNK        -0.1008 
     13 C13        31.2133  -42.1262  -56.0982 C.ar      11 UNK        -0.0735 
     14 C14        31.6854  -42.1040  -54.7837 C.ar      11 UNK        -0.0945 
     15 C15        29.9609  -41.3494  -56.4713 C.3       11 UNK         0.0169 
     16 S16        28.4772  -42.3980  -56.3167 S.3       11 UNK        -0.2669 
     17 C17        28.5821  -43.4076  -57.8356 C.3       11 UNK        -0.0850 
     18 CA         27.1798  -43.8354  -58.3438 C.3       10 UNK         0.0855 
     19 C          27.1992  -44.2838  -59.8371 C.2       10 UNK         0.5543 
     20 N          26.5122  -45.3484  -60.2333 N.am      10 UNK        -0.7343 
     21 O          27.8386  -43.6408  -60.6659 O.2       10 UNK        -0.5027 
     22 N          26.5684  -44.8236  -57.4404 N.am      10 UNK        -0.4495 
     23 C          25.2663  -44.8917  -57.1423 C.2       10 UNK         0.4903 
     24 O          24.4300  -44.0656  -57.5124 O.2       10 UNK        -0.4860 
     25 CA         24.8339  -46.1224  -56.3210 C.3       9 UNK         0.0227 
     26 CB         23.3041  -46.2312  -56.1510 C.3       9 UNK        -0.1964 
     27 N          25.3838  -47.3721  -56.8616 N.am      9 UNK        -0.4231 
     28 C          25.2344  -47.8650  -58.1016 C.2       9 UNK         0.5014 
     29 O          24.5626  -47.3193  -58.9778 O.2       9 UNK        -0.5270 
     30 CA         25.9947  -49.1572  -58.4570 C.3       8 UNK         0.0284 
     31 CB         27.1161  -48.8520  -59.4647 C.3       8 UNK        -0.1977 
     32 N          26.5784  -49.8331  -57.2970 N.am      8 UNK        -0.4342 
     33 C          25.8914  -50.5401  -56.3901 C.2       8 UNK         0.5039 
     34 O          24.6840  -50.7686  -56.4670 O.2       8 UNK        -0.5547 
     35 CA         26.6821  -51.0365  -55.1686 C.3       7 UNK         0.0281 
     36 CB         27.4309  -52.3399  -55.4910 C.3       7 UNK        -0.1963 
     37 N          27.6256  -50.0283  -54.6748 N.am      7 UNK        -0.4444 
     38 C          27.2687  -48.8849  -54.0713 C.2       7 UNK         0.5104 
     39 O          26.1032  -48.5680  -53.8372 O.2       7 UNK        -0.5100 
     40 CA         28.3995  -47.9135  -53.6963 C.3       6 UNK         0.0396 
     41 CB         28.9615  -48.2432  -52.3057 C.3       6 UNK        -0.1801 
     42 N          29.4911  -47.9089  -54.6704 N.am      6 UNK        -0.4747 
     43 C          29.3967  -47.4132  -55.9141 C.2       6 UNK         0.5012 
     44 O          28.3790  -46.8959  -56.3790 O.2       6 UNK        -0.5003 
     45 CA         30.6596  -47.5371  -56.7874 C.3       5 UNK         0.0782 
     46 C46        31.6718  -46.4544  -56.3489 C.3       11 UNK        -0.0868 
     47 S47        33.2440  -46.4461  -57.2864 S.3       11 UNK        -0.2515 
     48 C48        33.5491  -44.6838  -57.6960 C.3       11 UNK         0.0199 
     49 N          31.2246  -48.8917  -56.7564 N.am      5 UNK        -0.4607 
     50 C          30.5800  -50.0191  -57.0855 C.2       4 UNK         0.5031 
     51 O          29.4043  -50.0482  -57.4449 O.2       4 UNK        -0.5119 
     52 CA         31.3412  -51.3495  -56.9498 C.3       4 UNK         0.0263 
     53 CB         32.2557  -51.6007  -58.1649 C.3       4 UNK        -0.1967 
     54 N          32.0531  -51.4950  -55.6713 N.am      4 UNK        -0.4237 
     55 C          33.1238  -50.8172  -55.2379 C.2       3 UNK         0.4908 
     56 O          33.7450  -49.9948  -55.9156 O.2       3 UNK        -0.5102 
     57 CA         33.5627  -51.1003  -53.7927 C.3       3 UNK         0.0241 
     58 CB         34.5754  -52.2564  -53.7526 C.3       3 UNK        -0.1971 
     59 N          34.1610  -49.9141  -53.1798 N.am      3 UNK        -0.4139 
     60 C          33.5005  -48.7829  -52.9020 C.2       2 UNK         0.5016 
     61 O          32.2818  -48.6302  -53.0458 O.2       2 UNK        -0.5319 
     62 CA         34.3604  -47.6145  -52.4134 C.3       2 UNK         0.0286 
     63 CB         34.8987  -46.8043  -53.6055 C.3       2 UNK        -0.1963 
     64 N          33.5470  -46.7623  -51.5558 N.am      2 UNK        -0.4790 
     65 C          34.0154  -45.9357  -50.6130 C.2       1 UNK         0.5024 
     66 O          35.2157  -45.7705  -50.3887 O.2       1 UNK        -0.4888 
     67 H67        29.3830  -46.9366  -49.4533 H         1 UNK         0.0892 
     68 H68        30.0964  -48.5531  -49.4331 H         1 UNK         0.0892 
     69 H69        29.7502  -47.7183  -47.9166 H         1 UNK         0.0892 
     70 H70        30.9232  -45.4439  -50.1409 H         1 UNK         0.3107 
     71 H71        33.4001  -45.0938  -48.7647 H         1 UNK         0.0773 
     72 H72        32.2052  -43.1464  -49.5535 H         1 UNK         0.0680 
     73 H73        33.7527  -43.1977  -50.3372 H         1 UNK         0.0680 
     74 H74        34.1374  -43.5148  -52.8437 H         1 UNK         0.0650 
     75 H75        33.4772  -41.9052  -52.6271 H         1 UNK         0.0650 
     76 H76        34.2633  -44.2947  -55.0859 H         1 UNK         0.1397 
     77 H77        31.4901  -42.9482  -58.0627 H         1 UNK         0.1363 
     78 H78        31.1713  -41.5124  -54.0383 H         1 UNK         0.1355 
     79 H79        30.0418  -40.9499  -57.4833 H         1 UNK         0.0707 
     80 H80        29.8494  -40.4860  -55.8135 H         1 UNK         0.0707 
     81 H81        29.0997  -42.8172  -58.5932 H         1 UNK         0.1034 
     82 H82        29.2089  -44.2808  -57.6476 H         1 UNK         0.1034 
     83 H83        26.5581  -42.9382  -58.3445 H         1 UNK         0.0482 
     84 H84        25.9193  -45.8617  -59.5934 H         1 UNK         0.3460 
     85 H85        26.5360  -45.6064  -61.2066 H         1 UNK         0.3460 
     86 H86        27.1841  -45.5572  -57.0988 H         1 UNK         0.2989 
     87 H87        25.2705  -46.0000  -55.3286 H         1 UNK         0.0559 
     88 H88        22.9019  -45.3462  -55.6567 H         1 UNK         0.0848 
     89 H89        23.0347  -47.0933  -55.5409 H         1 UNK         0.0848 
     90 H90        22.7952  -46.3273  -57.1108 H         1 UNK         0.0848 
     91 H91        25.9950  -47.8796  -56.2365 H         1 UNK         0.3144 
     92 H92        25.2826  -49.8365  -58.9300 H         1 UNK         0.0727 
     93 H93        27.8489  -48.1569  -59.0518 H         1 UNK         0.0790 
     94 H94        26.7161  -48.4032  -60.3748 H         1 UNK         0.0790 
     95 H95        27.6446  -49.7593  -59.7579 H         1 UNK         0.0790 
     96 H96        27.5907  -49.7662  -57.2003 H         1 UNK         0.3215 
     97 H97        25.9649  -51.2456  -54.3716 H         1 UNK         0.0863 
     98 H98        27.9607  -52.7211  -54.6180 H         1 UNK         0.0808 
     99 H99        28.1555  -52.2062  -56.2943 H         1 UNK         0.0808 
    100 H100       26.7347  -53.1166  -55.8104 H         1 UNK         0.0808 
    101 H101       28.6056  -50.1849  -54.8558 H         1 UNK         0.3118 
    102 H102       27.9753  -46.9076  -53.6609 H         1 UNK         0.0546 
    103 H103       29.4234  -49.2310  -52.2778 H         1 UNK         0.0828 
    104 H104       28.1735  -48.2276  -51.5515 H         1 UNK         0.0828 
    105 H105       29.7155  -47.5159  -52.0051 H         1 UNK         0.0828 
    106 H106       30.3801  -48.2864  -54.3618 H         1 UNK         0.3005 
    107 H107       30.3618  -47.3361  -57.8188 H         1 UNK         0.1257 
    108 H108       31.1812  -45.4861  -56.4323 H         1 UNK         0.0775 
    109 H109       31.9282  -46.5692  -55.2938 H         1 UNK         0.0775 
    110 H110       34.6250  -44.5189  -57.7665 H         1 UNK         0.0840 
    111 H111       33.1493  -44.4901  -58.6925 H         1 UNK         0.0840 
    112 H112       32.1993  -48.9707  -56.4791 H         1 UNK         0.2987 
    113 H113       30.5877  -52.1387  -56.9517 H         1 UNK         0.0785 
    114 H114       31.6743  -51.6178  -59.0877 H         1 UNK         0.0798 
    115 H115       32.7659  -52.5606  -58.0855 H         1 UNK         0.0798 
    116 H116       33.0141  -50.8258  -58.2793 H         1 UNK         0.0798 
    117 H117       31.6268  -52.1463  -55.0261 H         1 UNK         0.3079 
    118 H118       32.6854  -51.3768  -53.2036 H         1 UNK         0.0794 
    119 H119       34.8760  -52.4863  -52.7301 H         1 UNK         0.0786 
    120 H120       35.4755  -52.0244  -54.3238 H         1 UNK         0.0786 
    121 H121       34.1481  -53.1669  -54.1750 H         1 UNK         0.0786 
    122 H122       35.1646  -49.9279  -53.0715 H         1 UNK         0.3032 
    123 H123       35.1953  -48.0123  -51.8315 H         1 UNK         0.1094 
    124 H124       35.5160  -47.4246  -54.2567 H         1 UNK         0.0794 
    125 H125       34.0832  -46.4118  -54.2118 H         1 UNK         0.0794 
    126 H126       35.5118  -45.9645  -53.2786 H         1 UNK         0.0794 
    127 H127       32.5483  -46.8785  -51.6732 H         1 UNK         0.3016 
@<TRIPOS>BOND
     1    1    2 1    
     2    1   67 1    
     3    1   68 1    
     4    1   69 1    
     5    2    3 2    
     6    2    4 am   BACKBONE|DICT|INTERRES
     7    4    5 1    
     8    4   70 1    
     9    5    6 1    
    10    5   65 1    
    11    5   71 1    
    12    6    7 1    
    13    6   72 1    
    14    6   73 1    
    15    7    8 1    
    16    8    9 1    
    17    8   74 1    
    18    8   75 1    
    19    9   10 ar   
    20    9   14 ar   
    21   10   11 ar   
    22   10   76 1    
    23   11   12 ar   
    24   11   48 1    
    25   12   13 ar   
    26   12   77 1    
    27   13   14 ar   
    28   13   15 1    
    29   14   78 1    
    30   15   16 1    
    31   15   79 1    
    32   15   80 1    
    33   16   17 1    
    34   17   18 1    
    35   17   81 1    
    36   17   82 1    
    37   18   19 1    
    38   18   22 1    
    39   18   83 1    
    40   19   20 am   BACKBONE|DICT|INTERRES
    41   19   21 2    
    42   20   84 1    
    43   20   85 1    
    44   22   23 am   BACKBONE|DICT|INTERRES
    45   22   86 1    
    46   23   24 2    
    47   23   25 1    
    48   25   26 1    
    49   25   27 1    
    50   25   87 1    
    51   26   88 1    
    52   26   89 1    
    53   26   90 1    
    54   27   28 am   BACKBONE|DICT|INTERRES
    55   27   91 1    
    56   28   29 2    
    57   28   30 1    
    58   30   31 1    
    59   30   32 1    
    60   30   92 1    
    61   31   93 1    
    62   31   94 1    
    63   31   95 1    
    64   32   33 am   BACKBONE|DICT|INTERRES
    65   32   96 1    
    66   33   34 2    
    67   33   35 1    
    68   35   36 1    
    69   35   37 1    
    70   35   97 1    
    71   36   98 1    
    72   36   99 1    
    73   36  100 1    
    74   37   38 am   BACKBONE|DICT|INTERRES
    75   37  101 1    
    76   38   39 2    
    77   38   40 1    
    78   40   41 1    
    79   40   42 1    
    80   40  102 1    
    81   41  103 1    
    82   41  104 1    
    83   41  105 1    
    84   42   43 am   BACKBONE|DICT|INTERRES
    85   42  106 1    
    86   43   44 2    
    87   43   45 1    
    88   45   46 1    
    89   45   49 1    
    90   45  107 1    
    91   46   47 1    
    92   46  108 1    
    93   46  109 1    
    94   47   48 1    
    95   48  110 1    
    96   48  111 1    
    97   49   50 am   BACKBONE|DICT|INTERRES
    98   49  112 1    
    99   50   51 2    
   100   50   52 1    
   101   52   53 1    
   102   52   54 1    
   103   52  113 1    
   104   53  114 1    
   105   53  115 1    
   106   53  116 1    
   107   54   55 am   BACKBONE|DICT|INTERRES
   108   54  117 1    
   109   55   56 2    
   110   55   57 1    
   111   57   58 1    
   112   57   59 1    
   113   57  118 1    
   114   58  119 1    
   115   58  120 1    
   116   58  121 1    
   117   59   60 am   BACKBONE|DICT|INTERRES
   118   59  122 1    
   119   60   61 2    
   120   60   62 1    
   121   62   63 1    
   122   62   64 1    
   123   62  123 1    
   124   63  124 1    
   125   63  125 1    
   126   63  126 1    
   127   64   65 am   BACKBONE|DICT|INTERRES
   128   64  127 1    
   129   65   66 2    
@<TRIPOS>SUBSTRUCTURE
     1 UNK         1 GROUP             0       ****    0 ROOT    
