@<TRIPOS>MOLECULE
3R134
127   129    1
SMALL
USER_CHARGES


@<TRIPOS>ATOM
      1 CA         37.4670  -45.9836  -56.4181 C.3       0 UNK        -0.1968 
      2 C          36.3124  -46.3186  -55.4854 C.2       0 UNK         0.4852 
      3 O          36.2066  -45.7206  -54.4140 O.2       0 UNK        -0.5359 
      4 N          35.4557  -47.2683  -55.8917 N.am      1 UNK        -0.4300 
      5 CA         34.2636  -47.7446  -55.1701 C.3       1 UNK         0.0863 
      6 C6         33.1549  -46.6689  -55.0150 C.3       11 UNK        -0.0953 
      7 S7         32.6667  -45.9305  -56.6091 S.3       11 UNK        -0.2369 
      8 C8         32.9539  -44.1599  -56.2968 C.3       11 UNK         0.0226 
      9 C9         31.7766  -43.5309  -55.5662 C.ar      11 UNK        -0.0699 
     10 C10        31.7626  -43.4507  -54.1698 C.ar      11 UNK        -0.0804 
     11 C11        30.6602  -42.9059  -53.5038 C.ar      11 UNK        -0.0871 
     12 C12        29.5809  -42.4153  -54.2450 C.ar      11 UNK        -0.1008 
     13 C13        29.5828  -42.4906  -55.6396 C.ar      11 UNK        -0.0735 
     14 C14        30.6882  -43.0406  -56.2945 C.ar      11 UNK        -0.0945 
     15 C15        28.3806  -41.9961  -56.4304 C.3       11 UNK         0.0169 
     16 S16        26.9760  -43.1389  -56.2572 S.3       11 UNK        -0.2669 
     17 C17        25.7559  -42.3631  -57.3690 C.3       11 UNK        -0.0850 
     18 CA         24.4971  -43.2482  -57.5709 C.3       10 UNK         0.0855 
     19 C          23.4049  -42.4953  -58.3849 C.2       10 UNK         0.5543 
     20 N          22.9823  -42.9826  -59.5453 N.am      10 UNK        -0.7343 
     21 O          22.9263  -41.4511  -57.9492 O.2       10 UNK        -0.5027 
     22 N          24.8529  -44.5708  -58.1084 N.am      10 UNK        -0.4495 
     23 C          24.1525  -45.6975  -57.9493 C.2       10 UNK         0.4903 
     24 O          23.0887  -45.7566  -57.3322 O.2       10 UNK        -0.4860 
     25 CA         24.7317  -46.9898  -58.5599 C.3       9 UNK         0.0227 
     26 CB         24.1676  -47.2349  -59.9730 C.3       9 UNK        -0.1964 
     27 N          26.2013  -47.0916  -58.5374 N.am      9 UNK        -0.4231 
     28 C          27.1108  -46.3599  -59.2027 C.2       9 UNK         0.5014 
     29 O          26.8084  -45.4551  -59.9824 O.2       9 UNK        -0.5270 
     30 CA         28.6036  -46.6337  -58.9386 C.3       8 UNK         0.0284 
     31 CB         29.3166  -45.3529  -58.4802 C.3       8 UNK        -0.1977 
     32 N          28.8285  -47.6762  -57.9353 N.am      8 UNK        -0.4342 
     33 C          28.9781  -48.9797  -58.2103 C.2       8 UNK         0.5039 
     34 O          29.0053  -49.4385  -59.3528 O.2       8 UNK        -0.5547 
     35 CA         29.0860  -49.9461  -57.0142 C.3       7 UNK         0.0281 
     36 CB         30.5619  -50.2491  -56.7076 C.3       7 UNK        -0.1963 
     37 N          28.4222  -49.4595  -55.7988 N.am      7 UNK        -0.4444 
     38 C          27.1091  -49.1919  -55.7007 C.2       7 UNK         0.5104 
     39 O          26.3109  -49.3902  -56.6163 O.2       7 UNK        -0.5100 
     40 CA         26.5882  -48.5489  -54.3998 C.3       6 UNK         0.0396 
     41 CB         25.8711  -49.5997  -53.5378 C.3       6 UNK        -0.1801 
     42 N          27.6118  -47.8856  -53.5884 N.am      6 UNK        -0.4747 
     43 C          28.4204  -46.8905  -53.9863 C.2       6 UNK         0.5012 
     44 O          28.3693  -46.3782  -55.1046 O.2       6 UNK        -0.5003 
     45 CA         29.5245  -46.4655  -52.9933 C.3       5 UNK         0.0782 
     46 C46        29.0639  -45.2640  -52.1328 C.3       11 UNK        -0.0868 
     47 S47        30.4748  -44.5256  -51.2360 S.3       11 UNK        -0.2515 
     48 C48        30.6156  -42.8657  -51.9821 C.3       11 UNK         0.0199 
     49 N          29.9851  -47.5797  -52.1455 N.am      5 UNK        -0.4607 
     50 C          30.4943  -48.7375  -52.5845 C.2       4 UNK         0.5031 
     51 O          30.6639  -49.0069  -53.7759 O.2       4 UNK        -0.5119 
     52 CA         30.7748  -49.8087  -51.5270 C.3       4 UNK         0.0263 
     53 CB         29.4695  -50.5678  -51.2047 C.3       4 UNK        -0.1967 
     54 N          31.7883  -50.7056  -52.0733 N.am      4 UNK        -0.4237 
     55 C          32.3708  -51.7460  -51.4670 C.2       3 UNK         0.4908 
     56 O          32.1107  -52.1220  -50.3235 O.2       3 UNK        -0.5102 
     57 CA         33.4546  -52.4752  -52.2784 C.3       3 UNK         0.0241 
     58 CB         32.8399  -53.2536  -53.4549 C.3       3 UNK        -0.1971 
     59 N          34.4742  -51.5476  -52.7743 N.am      3 UNK        -0.4139 
     60 C          35.3697  -50.9213  -51.9969 C.2       2 UNK         0.5016 
     61 O          35.4949  -51.1279  -50.7890 O.2       2 UNK        -0.5319 
     62 CA         36.2858  -49.8867  -52.6747 C.3       2 UNK         0.0286 
     63 CB         37.6251  -50.5299  -53.0704 C.3       2 UNK        -0.1963 
     64 N          35.6991  -49.2341  -53.8508 N.am      2 UNK        -0.4790 
     65 C          34.6355  -48.4149  -53.8273 C.2       1 UNK         0.5024 
     66 O          33.9839  -48.1799  -52.8085 O.2       1 UNK        -0.4888 
     67 H67        37.4431  -46.5797  -57.3301 H         1 UNK         0.0892 
     68 H68        37.4267  -44.9319  -56.7003 H         1 UNK         0.0892 
     69 H69        38.4179  -46.1665  -55.9183 H         1 UNK         0.0892 
     70 H70        35.6084  -47.7036  -56.7908 H         1 UNK         0.3107 
     71 H71        33.8446  -48.5442  -55.7832 H         1 UNK         0.0773 
     72 H72        32.2605  -47.1117  -54.5799 H         1 UNK         0.0680 
     73 H73        33.4748  -45.8905  -54.3220 H         1 UNK         0.0680 
     74 H74        33.1018  -43.6576  -57.2538 H         1 UNK         0.0650 
     75 H75        33.8799  -44.0218  -55.7363 H         1 UNK         0.0650 
     76 H76        32.5965  -43.8326  -53.5974 H         1 UNK         0.1397 
     77 H77        28.7202  -42.0000  -53.7382 H         1 UNK         0.1363 
     78 H78        30.6959  -43.1056  -57.3735 H         1 UNK         0.1355 
     79 H79        28.0905  -41.0053  -56.0778 H         1 UNK         0.0707 
     80 H80        28.6336  -41.8919  -57.4868 H         1 UNK         0.0707 
     81 H81        25.4824  -41.3952  -56.9439 H         1 UNK         0.1034 
     82 H82        26.2305  -42.1552  -58.3299 H         1 UNK         0.1034 
     83 H83        24.0596  -43.4093  -56.5836 H         1 UNK         0.0482 
     84 H84        23.3709  -43.8384  -59.9075 H         1 UNK         0.3460 
     85 H85        22.2714  -42.4889  -60.0618 H         1 UNK         0.3460 
     86 H86        25.6893  -44.6185  -58.6820 H         1 UNK         0.2989 
     87 H87        24.3816  -47.8071  -57.9275 H         1 UNK         0.0559 
     88 H88        23.0774  -47.2669  -59.9553 H         1 UNK         0.0848 
     89 H89        24.5121  -48.1868  -60.3772 H         1 UNK         0.0848 
     90 H90        24.4551  -46.4498  -60.6727 H         1 UNK         0.0848 
     91 H91        26.5503  -47.8118  -57.9140 H         1 UNK         0.3144 
     92 H92        29.0429  -46.9369  -59.8911 H         1 UNK         0.0727 
     93 H93        28.9628  -45.0303  -57.5007 H         1 UNK         0.0790 
     94 H94        29.1534  -44.5294  -59.1764 H         1 UNK         0.0790 
     95 H95        30.3926  -45.5065  -58.4148 H         1 UNK         0.0790 
     96 H96        28.8055  -47.3768  -56.9650 H         1 UNK         0.3215 
     97 H97        28.5970  -50.8788  -57.3032 H         1 UNK         0.0863 
     98 H98        30.6609  -50.9679  -55.8939 H         1 UNK         0.0808 
     99 H99        31.1077  -49.3468  -56.4276 H         1 UNK         0.0808 
    100 H100       31.0620  -50.6743  -57.5788 H         1 UNK         0.0808 
    101 H101       29.0266  -49.2546  -55.0091 H         1 UNK         0.3118 
    102 H102       25.8609  -47.7873  -54.6883 H         1 UNK         0.0546 
    103 H103       26.5562  -50.3754  -53.1932 H         1 UNK         0.0828 
    104 H104       25.0785  -50.0933  -54.1023 H         1 UNK         0.0828 
    105 H105       25.4058  -49.1470  -52.6620 H         1 UNK         0.0828 
    106 H106       27.7452  -48.2469  -52.6554 H         1 UNK         0.3005 
    107 H107       30.3690  -46.1429  -53.6058 H         1 UNK         0.1257 
    108 H108       28.3143  -45.5771  -51.4039 H         1 UNK         0.0775 
    109 H109       28.5773  -44.5036  -52.7449 H         1 UNK         0.0775 
    110 H110       29.7809  -42.2541  -51.6358 H         1 UNK         0.0840 
    111 H111       31.5200  -42.3843  -51.6074 H         1 UNK         0.0840 
    112 H112       29.8914  -47.4361  -51.1503 H         1 UNK         0.2987 
    113 H113       31.1721  -49.3347  -50.6275 H         1 UNK         0.0785 
    114 H114       28.6917  -49.8866  -50.8579 H         1 UNK         0.0798 
    115 H115       29.6125  -51.3058  -50.4161 H         1 UNK         0.0798 
    116 H116       29.0815  -51.0880  -52.0816 H         1 UNK         0.0798 
    117 H117       32.0660  -50.4570  -53.0147 H         1 UNK         0.3079 
    118 H118       33.9409  -53.1944  -51.6154 H         1 UNK         0.0794 
    119 H119       33.5950  -53.8421  -53.9764 H         1 UNK         0.0786 
    120 H120       32.3686  -52.5930  -54.1837 H         1 UNK         0.0786 
    121 H121       32.0758  -53.9488  -53.1039 H         1 UNK         0.0786 
    122 H122       34.4610  -51.3245  -53.7584 H         1 UNK         0.3032 
    123 H123       36.4871  -49.1088  -51.9342 H         1 UNK         0.1094 
    124 H124       37.4951  -51.2996  -53.8322 H         1 UNK         0.0794 
    125 H125       38.3239  -49.7875  -53.4566 H         1 UNK         0.0794 
    126 H126       38.1012  -51.0013  -52.2092 H         1 UNK         0.0794 
    127 H127       36.1849  -49.3599  -54.7274 H         1 UNK         0.3016 
@<TRIPOS>BOND
     1    1    2 1    
     2    1   67 1    
     3    1   68 1    
     4    1   69 1    
     5    2    3 2    
     6    2    4 am   BACKBONE|DICT|INTERRES
     7    4    5 1    
     8    4   70 1    
     9    5    6 1    
    10    5   65 1    
    11    5   71 1    
    12    6    7 1    
    13    6   72 1    
    14    6   73 1    
    15    7    8 1    
    16    8    9 1    
    17    8   74 1    
    18    8   75 1    
    19    9   10 ar   
    20    9   14 ar   
    21   10   11 ar   
    22   10   76 1    
    23   11   12 ar   
    24   11   48 1    
    25   12   13 ar   
    26   12   77 1    
    27   13   14 ar   
    28   13   15 1    
    29   14   78 1    
    30   15   16 1    
    31   15   79 1    
    32   15   80 1    
    33   16   17 1    
    34   17   18 1    
    35   17   81 1    
    36   17   82 1    
    37   18   19 1    
    38   18   22 1    
    39   18   83 1    
    40   19   20 am   BACKBONE|DICT|INTERRES
    41   19   21 2    
    42   20   84 1    
    43   20   85 1    
    44   22   23 am   BACKBONE|DICT|INTERRES
    45   22   86 1    
    46   23   24 2    
    47   23   25 1    
    48   25   26 1    
    49   25   27 1    
    50   25   87 1    
    51   26   88 1    
    52   26   89 1    
    53   26   90 1    
    54   27   28 am   BACKBONE|DICT|INTERRES
    55   27   91 1    
    56   28   29 2    
    57   28   30 1    
    58   30   31 1    
    59   30   32 1    
    60   30   92 1    
    61   31   93 1    
    62   31   94 1    
    63   31   95 1    
    64   32   33 am   BACKBONE|DICT|INTERRES
    65   32   96 1    
    66   33   34 2    
    67   33   35 1    
    68   35   36 1    
    69   35   37 1    
    70   35   97 1    
    71   36   98 1    
    72   36   99 1    
    73   36  100 1    
    74   37   38 am   BACKBONE|DICT|INTERRES
    75   37  101 1    
    76   38   39 2    
    77   38   40 1    
    78   40   41 1    
    79   40   42 1    
    80   40  102 1    
    81   41  103 1    
    82   41  104 1    
    83   41  105 1    
    84   42   43 am   BACKBONE|DICT|INTERRES
    85   42  106 1    
    86   43   44 2    
    87   43   45 1    
    88   45   46 1    
    89   45   49 1    
    90   45  107 1    
    91   46   47 1    
    92   46  108 1    
    93   46  109 1    
    94   47   48 1    
    95   48  110 1    
    96   48  111 1    
    97   49   50 am   BACKBONE|DICT|INTERRES
    98   49  112 1    
    99   50   51 2    
   100   50   52 1    
   101   52   53 1    
   102   52   54 1    
   103   52  113 1    
   104   53  114 1    
   105   53  115 1    
   106   53  116 1    
   107   54   55 am   BACKBONE|DICT|INTERRES
   108   54  117 1    
   109   55   56 2    
   110   55   57 1    
   111   57   58 1    
   112   57   59 1    
   113   57  118 1    
   114   58  119 1    
   115   58  120 1    
   116   58  121 1    
   117   59   60 am   BACKBONE|DICT|INTERRES
   118   59  122 1    
   119   60   61 2    
   120   60   62 1    
   121   62   63 1    
   122   62   64 1    
   123   62  123 1    
   124   63  124 1    
   125   63  125 1    
   126   63  126 1    
   127   64   65 am   BACKBONE|DICT|INTERRES
   128   64  127 1    
   129   65   66 2    
@<TRIPOS>SUBSTRUCTURE
     1 UNK         1 GROUP             0       ****    0 ROOT    
