@<TRIPOS>MOLECULE
3R134
127   129    1
SMALL
USER_CHARGES


@<TRIPOS>ATOM
      1 CA         33.7758  -45.9020  -49.8437 C.3       0 UNK        -0.1968 
      2 C          34.7268  -45.9195  -51.0296 C.2       0 UNK         0.4852 
      3 O          35.8760  -46.3421  -50.8885 O.2       0 UNK        -0.5359 
      4 N          34.2592  -45.4614  -52.1981 N.am      1 UNK        -0.4300 
      5 CA         35.0314  -45.3564  -53.4418 C.3       1 UNK         0.0863 
      6 C6         34.3972  -44.3467  -54.4348 C.3       11 UNK        -0.0953 
      7 S7         34.1995  -42.6820  -53.7188 S.3       11 UNK        -0.2369 
      8 C8         32.7468  -42.0609  -54.6330 C.3       11 UNK         0.0226 
      9 C9         31.4676  -42.8544  -54.3772 C.ar      11 UNK        -0.0699 
     10 C10        31.0584  -43.1547  -53.0722 C.ar      11 UNK        -0.0804 
     11 C11        29.8739  -43.8614  -52.8420 C.ar      11 UNK        -0.0871 
     12 C12        29.0757  -44.2287  -53.9262 C.ar      11 UNK        -0.1008 
     13 C13        29.4829  -43.9627  -55.2336 C.ar      11 UNK        -0.0735 
     14 C14        30.6795  -43.2744  -55.4557 C.ar      11 UNK        -0.0945 
     15 C15        28.6306  -44.4515  -56.3925 C.3       11 UNK         0.0169 
     16 S16        27.4446  -43.1821  -56.9345 S.3       11 UNK        -0.2669 
     17 C17        28.2357  -42.5901  -58.4716 C.3       11 UNK        -0.0850 
     18 CA         27.5607  -43.1537  -59.7518 C.3       10 UNK         0.0855 
     19 C          28.3091  -42.6484  -61.0161 C.2       10 UNK         0.5543 
     20 N          27.8570  -41.5521  -61.6091 N.am      10 UNK        -0.7343 
     21 O          29.3205  -43.2127  -61.4287 O.2       10 UNK        -0.5027 
     22 N          27.4312  -44.6183  -59.6904 N.am      10 UNK        -0.4495 
     23 C          26.8582  -45.4093  -60.6059 C.2       10 UNK         0.4903 
     24 O          26.3572  -45.0090  -61.6570 O.2       10 UNK        -0.4860 
     25 CA         26.8154  -46.9121  -60.2755 C.3       9 UNK         0.0227 
     26 CB         28.0994  -47.6068  -60.7580 C.3       9 UNK        -0.1964 
     27 N          26.6184  -47.1948  -58.8492 N.am      9 UNK        -0.4231 
     28 C          25.4907  -46.9521  -58.1626 C.2       9 UNK         0.5014 
     29 O          24.4918  -46.4249  -58.6558 O.2       9 UNK        -0.5270 
     30 CA         25.4837  -47.3802  -56.6792 C.3       8 UNK         0.0284 
     31 CB         24.0635  -47.4941  -56.0857 C.3       8 UNK        -0.1977 
     32 N          26.2570  -48.6037  -56.4283 N.am      8 UNK        -0.4342 
     33 C          26.0389  -49.8293  -56.9311 C.2       8 UNK         0.5039 
     34 O          25.0990  -50.1207  -57.6713 O.2       8 UNK        -0.5547 
     35 CA         27.0615  -50.9144  -56.5577 C.3       7 UNK         0.0281 
     36 CB         28.3072  -50.8118  -57.4542 C.3       7 UNK        -0.1963 
     37 N          27.4621  -50.8480  -55.1506 N.am      7 UNK        -0.4444 
     38 C          26.7204  -51.2958  -54.1275 C.2       7 UNK         0.5104 
     39 O          25.6219  -51.8360  -54.2604 O.2       7 UNK        -0.5100 
     40 CA         27.3054  -51.1204  -52.7152 C.3       6 UNK         0.0396 
     41 CB         28.1541  -52.3422  -52.3282 C.3       6 UNK        -0.1801 
     42 N          28.1162  -49.9061  -52.6011 N.am      6 UNK        -0.4747 
     43 C          27.6041  -48.6764  -52.4302 C.2       6 UNK         0.5012 
     44 O          26.4038  -48.4562  -52.2666 O.2       6 UNK        -0.5003 
     45 CA         28.5852  -47.4852  -52.4700 C.3       5 UNK         0.0782 
     46 C46        28.9676  -47.0415  -51.0337 C.3       11 UNK        -0.0868 
     47 S47        30.3005  -45.7940  -50.9325 S.3       11 UNK        -0.2515 
     48 C48        29.4732  -44.2476  -51.4264 C.3       11 UNK         0.0199 
     49 N          29.7529  -47.7382  -53.3191 N.am      5 UNK        -0.4607 
     50 C          29.7164  -47.9602  -54.6396 C.2       4 UNK         0.5031 
     51 O          28.6843  -47.9162  -55.3072 O.2       4 UNK        -0.5119 
     52 CA         31.0331  -48.3487  -55.3340 C.3       4 UNK         0.0263 
     53 CB         31.5805  -47.1448  -56.1130 C.3       4 UNK        -0.1967 
     54 N          32.0606  -48.8886  -54.4290 N.am      4 UNK        -0.4237 
     55 C          31.9046  -49.9978  -53.6836 C.2       3 UNK         0.4908 
     56 O          30.8740  -50.6742  -53.7062 O.2       3 UNK        -0.5102 
     57 CA         33.0205  -50.3838  -52.6902 C.3       3 UNK         0.0241 
     58 CB         33.1942  -51.9132  -52.5678 C.3       3 UNK        -0.1971 
     59 N          34.3063  -49.7099  -52.9109 N.am      3 UNK        -0.4139 
     60 C          35.1568  -49.8718  -53.9356 C.2       2 UNK         0.5016 
     61 O          34.9795  -50.6601  -54.8658 O.2       2 UNK        -0.5319 
     62 CA         36.4011  -48.9576  -53.9143 C.3       2 UNK         0.0286 
     63 CB         37.1701  -48.9606  -55.2530 C.3       2 UNK        -0.1963 
     64 N          36.0883  -47.5786  -53.5032 N.am      2 UNK        -0.4790 
     65 C          35.2103  -46.7477  -54.0848 C.2       1 UNK         0.5024 
     66 O          34.5213  -47.0664  -55.0527 O.2       1 UNK        -0.4888 
     67 H67        33.0587  -45.0853  -49.9234 H         1 UNK         0.0892 
     68 H68        33.2271  -46.8414  -49.7838 H         1 UNK         0.0892 
     69 H69        34.3287  -45.7688  -48.9142 H         1 UNK         0.0892 
     70 H70        33.3049  -45.1358  -52.2560 H         1 UNK         0.3107 
     71 H71        36.0286  -44.9851  -53.1947 H         1 UNK         0.0773 
     72 H72        35.0127  -44.2547  -55.3315 H         1 UNK         0.0680 
     73 H73        33.4231  -44.7045  -54.7694 H         1 UNK         0.0680 
     74 H74        32.9890  -42.0498  -55.6969 H         1 UNK         0.0650 
     75 H75        32.5735  -41.0231  -54.3460 H         1 UNK         0.0650 
     76 H76        31.6691  -42.8475  -52.2343 H         1 UNK         0.1397 
     77 H77        28.1371  -44.7341  -53.7618 H         1 UNK         0.1363 
     78 H78        30.9908  -43.0591  -56.4685 H         1 UNK         0.1355 
     79 H79        29.2676  -44.7746  -57.2166 H         1 UNK         0.0707 
     80 H80        28.0728  -45.3379  -56.0888 H         1 UNK         0.0707 
     81 H81        29.3013  -42.8267  -58.4558 H         1 UNK         0.1034 
     82 H82        28.1789  -41.4998  -58.4718 H         1 UNK         0.1034 
     83 H83        26.5412  -42.7647  -59.7890 H         1 UNK         0.0482 
     84 H84        27.0347  -41.0766  -61.2706 H         1 UNK         0.3460 
     85 H85        28.3401  -41.1991  -62.4205 H         1 UNK         0.3460 
     86 H86        27.7934  -45.0496  -58.8557 H         1 UNK         0.2989 
     87 H87        25.9725  -47.3448  -60.8187 H         1 UNK         0.0559 
     88 H88        28.9828  -47.2377  -60.2355 H         1 UNK         0.0848 
     89 H89        28.2575  -47.4348  -61.8237 H         1 UNK         0.0848 
     90 H90        28.0473  -48.6859  -60.6111 H         1 UNK         0.0848 
     91 H91        27.3797  -47.6438  -58.3618 H         1 UNK         0.3144 
     92 H92        25.9966  -46.5854  -56.1366 H         1 UNK         0.0727 
     93 H93        24.0965  -47.7819  -55.0347 H         1 UNK         0.0790 
     94 H94        23.4602  -48.2307  -56.6170 H         1 UNK         0.0790 
     95 H95        23.5375  -46.5404  -56.1434 H         1 UNK         0.0790 
     96 H96        27.1062  -48.4638  -55.8790 H         1 UNK         0.3215 
     97 H97        26.5964  -51.8864  -56.7380 H         1 UNK         0.0863 
     98 H98        28.8169  -49.8553  -57.3382 H         1 UNK         0.0808 
     99 H99        28.0364  -50.9091  -58.5065 H         1 UNK         0.0808 
    100 H100       29.0232  -51.6029  -57.2308 H         1 UNK         0.0808 
    101 H101       28.3481  -50.4112  -54.9417 H         1 UNK         0.3118 
    102 H102       26.4718  -51.0569  -52.0123 H         1 UNK         0.0546 
    103 H103       28.5493  -52.2472  -51.3169 H         1 UNK         0.0828 
    104 H104       28.9969  -52.4835  -53.0057 H         1 UNK         0.0828 
    105 H105       27.5574  -53.2548  -52.3582 H         1 UNK         0.0828 
    106 H106       29.1132  -50.0097  -52.7590 H         1 UNK         0.3005 
    107 H107       28.0233  -46.6767  -52.9313 H         1 UNK         0.1257 
    108 H108       29.3073  -47.9031  -50.4552 H         1 UNK         0.0775 
    109 H109       28.0905  -46.6596  -50.5077 H         1 UNK         0.0775 
    110 H110       28.3901  -44.3467  -51.3411 H         1 UNK         0.0840 
    111 H111       29.7613  -43.4556  -50.7334 H         1 UNK         0.0840 
    112 H112       30.6452  -47.7572  -52.8495 H         1 UNK         0.2987 
    113 H113       30.7953  -49.1347  -56.0530 H         1 UNK         0.0785 
    114 H114       30.8394  -46.7640  -56.8166 H         1 UNK         0.0798 
    115 H115       32.4627  -47.4134  -56.6938 H         1 UNK         0.0798 
    116 H116       31.8463  -46.3238  -55.4469 H         1 UNK         0.0798 
    117 H117       32.9445  -48.3934  -54.4054 H         1 UNK         0.3079 
    118 H118       32.6718  -50.0265  -51.7202 H         1 UNK         0.0794 
    119 H119       32.2716  -52.3867  -52.2292 H         1 UNK         0.0786 
    120 H120       33.9697  -52.1690  -51.8460 H         1 UNK         0.0786 
    121 H121       33.4580  -52.3703  -53.5218 H         1 UNK         0.0786 
    122 H122       34.5603  -49.0240  -52.2132 H         1 UNK         0.3032 
    123 H123       37.0648  -49.3695  -53.1520 H         1 UNK         0.1094 
    124 H124       36.5502  -48.6068  -56.0776 H         1 UNK         0.0794 
    125 H125       38.0558  -48.3273  -55.2034 H         1 UNK         0.0794 
    126 H126       37.5067  -49.9662  -55.5086 H         1 UNK         0.0794 
    127 H127       36.5256  -47.2538  -52.6454 H         1 UNK         0.3016 
@<TRIPOS>BOND
     1    1    2 1    
     2    1   67 1    
     3    1   68 1    
     4    1   69 1    
     5    2    3 2    
     6    2    4 am   BACKBONE|DICT|INTERRES
     7    4    5 1    
     8    4   70 1    
     9    5    6 1    
    10    5   65 1    
    11    5   71 1    
    12    6    7 1    
    13    6   72 1    
    14    6   73 1    
    15    7    8 1    
    16    8    9 1    
    17    8   74 1    
    18    8   75 1    
    19    9   10 ar   
    20    9   14 ar   
    21   10   11 ar   
    22   10   76 1    
    23   11   12 ar   
    24   11   48 1    
    25   12   13 ar   
    26   12   77 1    
    27   13   14 ar   
    28   13   15 1    
    29   14   78 1    
    30   15   16 1    
    31   15   79 1    
    32   15   80 1    
    33   16   17 1    
    34   17   18 1    
    35   17   81 1    
    36   17   82 1    
    37   18   19 1    
    38   18   22 1    
    39   18   83 1    
    40   19   20 am   BACKBONE|DICT|INTERRES
    41   19   21 2    
    42   20   84 1    
    43   20   85 1    
    44   22   23 am   BACKBONE|DICT|INTERRES
    45   22   86 1    
    46   23   24 2    
    47   23   25 1    
    48   25   26 1    
    49   25   27 1    
    50   25   87 1    
    51   26   88 1    
    52   26   89 1    
    53   26   90 1    
    54   27   28 am   BACKBONE|DICT|INTERRES
    55   27   91 1    
    56   28   29 2    
    57   28   30 1    
    58   30   31 1    
    59   30   32 1    
    60   30   92 1    
    61   31   93 1    
    62   31   94 1    
    63   31   95 1    
    64   32   33 am   BACKBONE|DICT|INTERRES
    65   32   96 1    
    66   33   34 2    
    67   33   35 1    
    68   35   36 1    
    69   35   37 1    
    70   35   97 1    
    71   36   98 1    
    72   36   99 1    
    73   36  100 1    
    74   37   38 am   BACKBONE|DICT|INTERRES
    75   37  101 1    
    76   38   39 2    
    77   38   40 1    
    78   40   41 1    
    79   40   42 1    
    80   40  102 1    
    81   41  103 1    
    82   41  104 1    
    83   41  105 1    
    84   42   43 am   BACKBONE|DICT|INTERRES
    85   42  106 1    
    86   43   44 2    
    87   43   45 1    
    88   45   46 1    
    89   45   49 1    
    90   45  107 1    
    91   46   47 1    
    92   46  108 1    
    93   46  109 1    
    94   47   48 1    
    95   48  110 1    
    96   48  111 1    
    97   49   50 am   BACKBONE|DICT|INTERRES
    98   49  112 1    
    99   50   51 2    
   100   50   52 1    
   101   52   53 1    
   102   52   54 1    
   103   52  113 1    
   104   53  114 1    
   105   53  115 1    
   106   53  116 1    
   107   54   55 am   BACKBONE|DICT|INTERRES
   108   54  117 1    
   109   55   56 2    
   110   55   57 1    
   111   57   58 1    
   112   57   59 1    
   113   57  118 1    
   114   58  119 1    
   115   58  120 1    
   116   58  121 1    
   117   59   60 am   BACKBONE|DICT|INTERRES
   118   59  122 1    
   119   60   61 2    
   120   60   62 1    
   121   62   63 1    
   122   62   64 1    
   123   62  123 1    
   124   63  124 1    
   125   63  125 1    
   126   63  126 1    
   127   64   65 am   BACKBONE|DICT|INTERRES
   128   64  127 1    
   129   65   66 2    
@<TRIPOS>SUBSTRUCTURE
     1 UNK         1 GROUP             0       ****    0 ROOT    
