@<TRIPOS>MOLECULE
3R134
127   129    1
SMALL
USER_CHARGES


@<TRIPOS>ATOM
      1 CA         36.5266  -43.1970  -51.8598 C.3       0 UNK        -0.1968 
      2 C          35.8302  -44.4310  -52.4135 C.2       0 UNK         0.4852 
      3 O          34.6279  -44.5867  -52.2082 O.2       0 UNK        -0.5359 
      4 N          36.5887  -45.3106  -53.0840 N.am      1 UNK        -0.4300 
      5 CA         36.2087  -46.5420  -53.8031 C.3       1 UNK         0.0863 
      6 C6         35.5550  -46.2718  -55.1899 C.3       11 UNK        -0.0953 
      7 S7         33.7548  -45.9807  -55.1934 S.3       11 UNK        -0.2369 
      8 C8         33.6604  -44.1965  -55.5322 C.3       11 UNK         0.0226 
      9 C9         32.2455  -43.6823  -55.3179 C.ar      11 UNK        -0.0699 
     10 C10        31.6515  -43.8097  -54.0608 C.ar      11 UNK        -0.0804 
     11 C11        30.3409  -43.3827  -53.8461 C.ar      11 UNK        -0.0871 
     12 C12        29.6380  -42.7692  -54.8866 C.ar      11 UNK        -0.1008 
     13 C13        30.2261  -42.6174  -56.1467 C.ar      11 UNK        -0.0735 
     14 C14        31.5276  -43.0870  -56.3599 C.ar      11 UNK        -0.0945 
     15 C15        29.4654  -41.9351  -57.2749 C.3       11 UNK         0.0169 
     16 S16        28.1964  -43.0236  -57.9936 S.3       11 UNK        -0.2669 
     17 C17        26.6806  -42.3831  -57.1950 C.3       11 UNK        -0.0850 
     18 CA         25.3879  -43.1261  -57.6214 C.3       10 UNK         0.0855 
     19 C          25.0064  -42.8422  -59.1065 C.2       10 UNK         0.5543 
     20 N          24.9925  -43.8272  -59.9981 N.am      10 UNK        -0.7343 
     21 O          24.7036  -41.7021  -59.4503 O.2       10 UNK        -0.5027 
     22 N          25.4494  -44.5463  -57.2532 N.am      10 UNK        -0.4495 
     23 C          24.3988  -45.3721  -57.1748 C.2       10 UNK         0.4903 
     24 O          23.2285  -44.9979  -57.2673 O.2       10 UNK        -0.4860 
     25 CA         24.7135  -46.8673  -56.9645 C.3       9 UNK         0.0227 
     26 CB         23.6138  -47.7915  -57.5273 C.3       9 UNK        -0.1964 
     27 N          26.0318  -47.2696  -57.4726 N.am      9 UNK        -0.4231 
     28 C          26.4879  -47.1818  -58.7326 C.2       9 UNK         0.5014 
     29 O          25.8477  -46.6953  -59.6663 O.2       9 UNK        -0.5270 
     30 CA         27.9090  -47.7094  -58.9908 C.3       8 UNK         0.0284 
     31 CB         28.9498  -46.6147  -58.7069 C.3       8 UNK        -0.1977 
     32 N          28.2242  -48.8994  -58.1976 N.am      8 UNK        -0.4342 
     33 C          27.6767  -50.1086  -58.3892 C.2       8 UNK         0.5039 
     34 O          26.8910  -50.3713  -59.3006 O.2       8 UNK        -0.5547 
     35 CA         28.0589  -51.2085  -57.3851 C.3       7 UNK         0.0281 
     36 CB         29.4469  -51.7865  -57.7054 C.3       7 UNK        -0.1963 
     37 N          28.0193  -50.7255  -56.0025 N.am      7 UNK        -0.4444 
     38 C          26.8904  -50.4386  -55.3376 C.2       7 UNK         0.5104 
     39 O          25.7608  -50.6166  -55.7928 O.2       7 UNK        -0.5100 
     40 CA         27.0422  -49.8384  -53.9299 C.3       6 UNK         0.0396 
     41 CB         27.0532  -50.9474  -52.8664 C.3       6 UNK        -0.1801 
     42 N          28.2425  -49.0117  -53.7879 N.am      6 UNK        -0.4747 
     43 C          28.4083  -47.8113  -54.3655 C.2       6 UNK         0.5012 
     44 O          27.5672  -47.2841  -55.0932 O.2       6 UNK        -0.5003 
     45 CA         29.7680  -47.1157  -54.1369 C.3       5 UNK         0.0782 
     46 C46        29.8315  -46.4479  -52.7370 C.3       11 UNK        -0.0868 
     47 S47        28.6274  -45.0883  -52.5050 S.3       11 UNK        -0.2515 
     48 C48        29.6843  -43.6051  -52.4941 C.3       11 UNK         0.0199 
     49 N          30.8806  -48.0554  -54.3373 N.am      5 UNK        -0.4607 
     50 C          31.1095  -48.7446  -55.4691 C.2       4 UNK         0.5031 
     51 O          30.4716  -48.5676  -56.5060 O.2       4 UNK        -0.5119 
     52 CA         32.1529  -49.8809  -55.4442 C.3       4 UNK         0.0263 
     53 CB         33.4169  -49.5183  -56.2353 C.3       4 UNK        -0.1967 
     54 N          32.5181  -50.3274  -54.0999 N.am      4 UNK        -0.4237 
     55 C          31.6747  -50.9408  -53.2566 C.2       3 UNK         0.4908 
     56 O          30.5237  -51.2577  -53.5608 O.2       3 UNK        -0.5102 
     57 CA         32.1684  -51.2021  -51.8220 C.3       3 UNK         0.0241 
     58 CB         32.6148  -52.6648  -51.6692 C.3       3 UNK        -0.1971 
     59 N          33.2497  -50.3168  -51.3704 N.am      3 UNK        -0.4139 
     60 C          33.1990  -48.9773  -51.3166 C.2       2 UNK         0.5016 
     61 O          32.2279  -48.3179  -51.6897 O.2       2 UNK        -0.5319 
     62 CA         34.4347  -48.2391  -50.7699 C.3       2 UNK         0.0286 
     63 CB         35.5179  -49.1632  -50.1662 C.3       2 UNK        -0.1963 
     64 N          35.0256  -47.3458  -51.7715 N.am      2 UNK        -0.4790 
     65 C          35.5222  -47.6631  -52.9754 C.2       1 UNK         0.5024 
     66 O          35.5052  -48.8098  -53.4284 O.2       1 UNK        -0.4888 
     67 H67        36.0695  -42.2962  -52.2685 H         1 UNK         0.0892 
     68 H68        37.5882  -43.1794  -52.1059 H         1 UNK         0.0892 
     69 H69        36.4288  -43.1663  -50.7750 H         1 UNK         0.0892 
     70 H70        37.5768  -45.1065  -53.1443 H         1 UNK         0.3107 
     71 H71        37.1821  -46.9782  -54.0337 H         1 UNK         0.0773 
     72 H72        36.0567  -45.4384  -55.6839 H         1 UNK         0.0680 
     73 H73        35.7348  -47.1301  -55.8390 H         1 UNK         0.0680 
     74 H74        33.9977  -44.0083  -56.5525 H         1 UNK         0.0650 
     75 H75        34.3383  -43.6574  -54.8702 H         1 UNK         0.0650 
     76 H76        32.2076  -44.2746  -53.2577 H         1 UNK         0.1397 
     77 H77        28.6287  -42.4229  -54.7161 H         1 UNK         0.1363 
     78 H78        31.9837  -42.9829  -57.3349 H         1 UNK         0.1355 
     79 H79        30.1536  -41.6401  -58.0684 H         1 UNK         0.0707 
     80 H80        29.0143  -41.0106  -56.9114 H         1 UNK         0.0707 
     81 H81        26.7960  -42.4590  -56.1137 H         1 UNK         0.1034 
     82 H82        26.5909  -41.3159  -57.4075 H         1 UNK         0.1034 
     83 H83        24.5761  -42.6933  -57.0337 H         1 UNK         0.0482 
     84 H84        24.7381  -43.6237  -60.9512 H         1 UNK         0.3460 
     85 H85        25.2508  -44.7733  -59.7378 H         1 UNK         0.3460 
     86 H86        26.3764  -44.9386  -57.1766 H         1 UNK         0.2989 
     87 H87        24.7511  -47.0186  -55.8848 H         1 UNK         0.0559 
     88 H88        23.4799  -47.6525  -58.6006 H         1 UNK         0.0848 
     89 H89        22.6527  -47.5957  -57.0507 H         1 UNK         0.0848 
     90 H90        23.8528  -48.8408  -57.3521 H         1 UNK         0.0848 
     91 H91        26.6805  -47.5815  -56.7535 H         1 UNK         0.3144 
     92 H92        27.9772  -47.9793  -60.0468 H         1 UNK         0.0727 
     93 H93        28.9323  -46.2976  -57.6629 H         1 UNK         0.0790 
     94 H94        28.7640  -45.7328  -59.3211 H         1 UNK         0.0790 
     95 H95        29.9595  -46.9586  -58.9321 H         1 UNK         0.0790 
     96 H96        28.9252  -48.7861  -57.4662 H         1 UNK         0.3215 
     97 H97        27.3292  -52.0162  -57.4786 H         1 UNK         0.0863 
     98 H98        29.7488  -52.5351  -56.9725 H         1 UNK         0.0808 
     99 H99        30.2136  -51.0127  -57.7368 H         1 UNK         0.0808 
    100 H100       29.4438  -52.2720  -58.6821 H         1 UNK         0.0808 
    101 H101       28.9012  -50.5594  -55.5386 H         1 UNK         0.3118 
    102 H102       26.1727  -49.2033  -53.7465 H         1 UNK         0.0546 
    103 H103       26.1457  -51.5500  -52.9241 H         1 UNK         0.0828 
    104 H104       27.1015  -50.5326  -51.8595 H         1 UNK         0.0828 
    105 H105       27.8997  -51.6231  -52.9929 H         1 UNK         0.0828 
    106 H106       29.0088  -49.4091  -53.2604 H         1 UNK         0.3005 
    107 H107       29.8695  -46.3349  -54.8948 H         1 UNK         0.1257 
    108 H108       30.8365  -46.0676  -52.5532 H         1 UNK         0.0775 
    109 H109       29.6601  -47.1879  -51.9530 H         1 UNK         0.0775 
    110 H110       29.0756  -42.7375  -52.2349 H         1 UNK         0.0840 
    111 H111       30.4347  -43.6968  -51.7070 H         1 UNK         0.0840 
    112 H112       31.4521  -48.2441  -53.5186 H         1 UNK         0.2987 
    113 H113       31.6917  -50.7317  -55.9477 H         1 UNK         0.0785 
    114 H114       34.0210  -48.7835  -55.7089 H         1 UNK         0.0798 
    115 H115       33.1680  -49.1023  -57.2127 H         1 UNK         0.0798 
    116 H116       34.0401  -50.3963  -56.4054 H         1 UNK         0.0798 
    117 H117       33.4399  -50.0736  -53.7677 H         1 UNK         0.3079 
    118 H118       31.3170  -51.0336  -51.1595 H         1 UNK         0.0794 
    119 H119       33.4884  -52.8864  -52.2838 H         1 UNK         0.0786 
    120 H120       31.8210  -53.3494  -51.9723 H         1 UNK         0.0786 
    121 H121       32.8626  -52.8994  -50.6338 H         1 UNK         0.0786 
    122 H122       34.1001  -50.7667  -51.0639 H         1 UNK         0.3032 
    123 H123       34.0641  -47.5989  -49.9675 H         1 UNK         0.1094 
    124 H124       36.3274  -48.5772  -49.7307 H         1 UNK         0.0794 
    125 H125       35.1106  -49.7805  -49.3640 H         1 UNK         0.0794 
    126 H126       35.9611  -49.8272  -50.9093 H         1 UNK         0.0794 
    127 H127       34.9562  -46.3504  -51.5762 H         1 UNK         0.3016 
@<TRIPOS>BOND
     1    1    2 1    
     2    1   67 1    
     3    1   68 1    
     4    1   69 1    
     5    2    3 2    
     6    2    4 am   BACKBONE|DICT|INTERRES
     7    4    5 1    
     8    4   70 1    
     9    5    6 1    
    10    5   65 1    
    11    5   71 1    
    12    6    7 1    
    13    6   72 1    
    14    6   73 1    
    15    7    8 1    
    16    8    9 1    
    17    8   74 1    
    18    8   75 1    
    19    9   10 ar   
    20    9   14 ar   
    21   10   11 ar   
    22   10   76 1    
    23   11   12 ar   
    24   11   48 1    
    25   12   13 ar   
    26   12   77 1    
    27   13   14 ar   
    28   13   15 1    
    29   14   78 1    
    30   15   16 1    
    31   15   79 1    
    32   15   80 1    
    33   16   17 1    
    34   17   18 1    
    35   17   81 1    
    36   17   82 1    
    37   18   19 1    
    38   18   22 1    
    39   18   83 1    
    40   19   20 am   BACKBONE|DICT|INTERRES
    41   19   21 2    
    42   20   84 1    
    43   20   85 1    
    44   22   23 am   BACKBONE|DICT|INTERRES
    45   22   86 1    
    46   23   24 2    
    47   23   25 1    
    48   25   26 1    
    49   25   27 1    
    50   25   87 1    
    51   26   88 1    
    52   26   89 1    
    53   26   90 1    
    54   27   28 am   BACKBONE|DICT|INTERRES
    55   27   91 1    
    56   28   29 2    
    57   28   30 1    
    58   30   31 1    
    59   30   32 1    
    60   30   92 1    
    61   31   93 1    
    62   31   94 1    
    63   31   95 1    
    64   32   33 am   BACKBONE|DICT|INTERRES
    65   32   96 1    
    66   33   34 2    
    67   33   35 1    
    68   35   36 1    
    69   35   37 1    
    70   35   97 1    
    71   36   98 1    
    72   36   99 1    
    73   36  100 1    
    74   37   38 am   BACKBONE|DICT|INTERRES
    75   37  101 1    
    76   38   39 2    
    77   38   40 1    
    78   40   41 1    
    79   40   42 1    
    80   40  102 1    
    81   41  103 1    
    82   41  104 1    
    83   41  105 1    
    84   42   43 am   BACKBONE|DICT|INTERRES
    85   42  106 1    
    86   43   44 2    
    87   43   45 1    
    88   45   46 1    
    89   45   49 1    
    90   45  107 1    
    91   46   47 1    
    92   46  108 1    
    93   46  109 1    
    94   47   48 1    
    95   48  110 1    
    96   48  111 1    
    97   49   50 am   BACKBONE|DICT|INTERRES
    98   49  112 1    
    99   50   51 2    
   100   50   52 1    
   101   52   53 1    
   102   52   54 1    
   103   52  113 1    
   104   53  114 1    
   105   53  115 1    
   106   53  116 1    
   107   54   55 am   BACKBONE|DICT|INTERRES
   108   54  117 1    
   109   55   56 2    
   110   55   57 1    
   111   57   58 1    
   112   57   59 1    
   113   57  118 1    
   114   58  119 1    
   115   58  120 1    
   116   58  121 1    
   117   59   60 am   BACKBONE|DICT|INTERRES
   118   59  122 1    
   119   60   61 2    
   120   60   62 1    
   121   62   63 1    
   122   62   64 1    
   123   62  123 1    
   124   63  124 1    
   125   63  125 1    
   126   63  126 1    
   127   64   65 am   BACKBONE|DICT|INTERRES
   128   64  127 1    
   129   65   66 2    
@<TRIPOS>SUBSTRUCTURE
     1 UNK         1 GROUP             0       ****    0 ROOT    
