@<TRIPOS>MOLECULE
3R134
127   129    1
SMALL
USER_CHARGES


@<TRIPOS>ATOM
      1 CA         29.2007  -45.7101  -49.8383 C.3       0 UNK        -0.1968 
      2 C          30.5718  -45.3279  -50.3769 C.2       0 UNK         0.4852 
      3 O          30.9276  -44.1488  -50.3596 O.2       0 UNK        -0.5359 
      4 N          31.3434  -46.3133  -50.8476 N.am      1 UNK        -0.4300 
      5 CA         32.6935  -46.1491  -51.3766 C.3       1 UNK         0.0863 
      6 C6         32.6810  -45.6612  -52.8489 C.3       11 UNK        -0.0953 
      7 S7         34.3374  -45.2003  -53.4668 S.3       11 UNK        -0.2369 
      8 C8         34.1051  -43.4527  -53.9352 C.3       11 UNK         0.0226 
      9 C9         33.0837  -43.2844  -55.0532 C.ar      11 UNK        -0.0699 
     10 C10        33.2519  -43.9566  -56.2684 C.ar      11 UNK        -0.0804 
     11 C11        32.2815  -43.8610  -57.2696 C.ar      11 UNK        -0.0871 
     12 C12        31.1791  -43.0273  -57.0831 C.ar      11 UNK        -0.1008 
     13 C13        30.9861  -42.3719  -55.8659 C.ar      11 UNK        -0.0735 
     14 C14        31.9465  -42.4931  -54.8570 C.ar      11 UNK        -0.0945 
     15 C15        29.7105  -41.5795  -55.6316 C.3       11 UNK         0.0169 
     16 S16        28.4443  -42.5505  -54.7428 S.3       11 UNK        -0.2669 
     17 C17        28.1230  -43.9981  -55.8197 C.3       11 UNK        -0.0850 
     18 CA         26.8805  -43.8312  -56.7426 C.3       10 UNK         0.0855 
     19 C          27.2548  -43.3894  -58.1910 C.2       10 UNK         0.5543 
     20 N          26.8835  -44.1185  -59.2377 N.am      10 UNK        -0.7343 
     21 O          27.8752  -42.3477  -58.3780 O.2       10 UNK        -0.5027 
     22 N          26.0188  -45.0234  -56.6969 N.am      10 UNK        -0.4495 
     23 C          24.6896  -44.9953  -56.8667 C.2       10 UNK         0.4903 
     24 O          24.0394  -43.9548  -56.9814 O.2       10 UNK        -0.4860 
     25 CA         23.9625  -46.3538  -56.9150 C.3       9 UNK         0.0227 
     26 CB         22.5872  -46.2703  -57.6115 C.3       9 UNK        -0.1964 
     27 N          24.7667  -47.4372  -57.4930 N.am      9 UNK        -0.4231 
     28 C          25.2949  -47.4985  -58.7274 C.2       9 UNK         0.5014 
     29 O          25.1926  -46.5902  -59.5532 O.2       9 UNK        -0.5270 
     30 CA         26.0916  -48.7662  -59.0991 C.3       8 UNK         0.0284 
     31 CB         27.3466  -48.4259  -59.9253 C.3       8 UNK        -0.1977 
     32 N          26.4973  -49.5117  -57.9066 N.am      8 UNK        -0.4342 
     33 C          25.8588  -50.5723  -57.3922 C.2       8 UNK         0.5039 
     34 O          24.8996  -51.1217  -57.9339 O.2       8 UNK        -0.5547 
     35 CA         26.3412  -51.0856  -56.0210 C.3       7 UNK         0.0281 
     36 CB         27.2303  -52.3271  -56.1952 C.3       7 UNK        -0.1963 
     37 N          27.0601  -50.0676  -55.2440 N.am      7 UNK        -0.4444 
     38 C          26.4846  -48.9701  -54.7241 C.2       7 UNK         0.5104 
     39 O          25.2756  -48.7496  -54.7863 O.2       7 UNK        -0.5100 
     40 CA         27.4032  -47.9000  -54.0996 C.3       6 UNK         0.0396 
     41 CB         27.4897  -48.0839  -52.5778 C.3       6 UNK        -0.1801 
     42 N          28.7562  -47.8877  -54.6624 N.am      6 UNK        -0.4747 
     43 C          29.0587  -47.6781  -55.9529 C.2       6 UNK         0.5012 
     44 O          28.2187  -47.3271  -56.7821 O.2       6 UNK        -0.5003 
     45 CA         30.5103  -47.9826  -56.3989 C.3       5 UNK         0.0782 
     46 C46        31.3074  -46.6939  -56.7070 C.3       11 UNK        -0.0868 
     47 S47        31.0586  -46.0625  -58.4030 S.3       11 UNK        -0.2515 
     48 C48        32.3429  -44.7625  -58.4924 C.3       11 UNK         0.0199 
     49 N          31.2492  -48.8199  -55.4435 N.am      5 UNK        -0.4607 
     50 C          30.9553  -50.0811  -55.0983 C.2       4 UNK         0.5031 
     51 O          29.9649  -50.6796  -55.5175 O.2       4 UNK        -0.5119 
     52 CA         31.8842  -50.7549  -54.0697 C.3       4 UNK         0.0263 
     53 CB         31.9792  -52.2829  -54.2654 C.3       4 UNK        -0.1967 
     54 N          33.2131  -50.1307  -53.9827 N.am      4 UNK        -0.4237 
     55 C          34.1794  -50.1237  -54.9183 C.2       3 UNK         0.4908 
     56 O          34.0839  -50.7014  -56.0013 O.2       3 UNK        -0.5102 
     57 CA         35.4562  -49.3039  -54.6335 C.3       3 UNK         0.0241 
     58 CB         35.5971  -48.1595  -55.6536 C.3       3 UNK        -0.1971 
     59 N          35.5065  -48.7329  -53.2856 N.am      3 UNK        -0.4139 
     60 C          35.7516  -49.4159  -52.1583 C.2       2 UNK         0.5016 
     61 O          36.0599  -50.6073  -52.1328 O.2       2 UNK        -0.5319 
     62 CA         35.5844  -48.6486  -50.8321 C.3       2 UNK         0.0286 
     63 CB         36.9543  -48.2144  -50.2863 C.3       2 UNK        -0.1963 
     64 N          34.7109  -47.4707  -50.9327 N.am      2 UNK        -0.4790 
     65 C          33.4032  -47.5032  -51.2270 C.2       1 UNK         0.5024 
     66 O          32.7736  -48.5443  -51.4352 O.2       1 UNK        -0.4888 
     67 H67        28.4191  -45.2689  -50.4563 H         1 UNK         0.0892 
     68 H68        29.0551  -46.7900  -49.8212 H         1 UNK         0.0892 
     69 H69        29.0806  -45.3386  -48.8210 H         1 UNK         0.0892 
     70 H70        31.0376  -47.2779  -50.8077 H         1 UNK         0.3107 
     71 H71        33.2171  -45.4168  -50.7576 H         1 UNK         0.0773 
     72 H72        32.2595  -46.4200  -53.5103 H         1 UNK         0.0680 
     73 H73        32.0220  -44.7968  -52.9387 H         1 UNK         0.0680 
     74 H74        33.8151  -42.8855  -53.0493 H         1 UNK         0.0650 
     75 H75        35.0616  -43.0458  -54.2654 H         1 UNK         0.0650 
     76 H76        34.1056  -44.6065  -56.4042 H         1 UNK         0.1397 
     77 H77        30.4239  -42.9626  -57.8546 H         1 UNK         0.1363 
     78 H78        31.7911  -41.9946  -53.9098 H         1 UNK         0.1355 
     79 H79        29.9405  -40.6890  -55.0448 H         1 UNK         0.0707 
     80 H80        29.3035  -41.2157  -56.5747 H         1 UNK         0.0707 
     81 H81        29.0077  -44.2929  -56.3813 H         1 UNK         0.1034 
     82 H82        27.9630  -44.8271  -55.1295 H         1 UNK         0.1034 
     83 H83        26.2910  -43.0039  -56.3432 H         1 UNK         0.0482 
     84 H84        27.1319  -43.8038  -60.1615 H         1 UNK         0.3460 
     85 H85        26.3318  -44.9618  -59.1292 H         1 UNK         0.3460 
     86 H86        26.4965  -45.9160  -56.6720 H         1 UNK         0.2989 
     87 H87        23.7855  -46.6330  -55.8755 H         1 UNK         0.0559 
     88 H88        21.9289  -45.5675  -57.0992 H         1 UNK         0.0848 
     89 H89        22.0840  -47.2370  -57.6144 H         1 UNK         0.0848 
     90 H90        22.6776  -45.9357  -58.6455 H         1 UNK         0.0848 
     91 H91        24.9334  -48.2160  -56.8669 H         1 UNK         0.3144 
     92 H92        25.4383  -49.3831  -59.7192 H         1 UNK         0.0727 
     93 H93        28.0065  -47.7357  -59.3983 H         1 UNK         0.0790 
     94 H94        27.0768  -47.9557  -60.8718 H         1 UNK         0.0790 
     95 H95        27.9198  -49.3218  -60.1641 H         1 UNK         0.0790 
     96 H96        27.2498  -49.0912  -57.3734 H         1 UNK         0.3215 
     97 H97        25.4564  -51.3787  -55.4514 H         1 UNK         0.0863 
     98 H98        27.5726  -52.7113  -55.2342 H         1 UNK         0.0808 
     99 H99        28.1097  -52.1122  -56.8034 H         1 UNK         0.0808 
    100 H100       26.6831  -53.1307  -56.6899 H         1 UNK         0.0808 
    101 H101       28.0681  -50.1819  -55.1783 H         1 UNK         0.3118 
    102 H102       26.9513  -46.9266  -54.2997 H         1 UNK         0.0546 
    103 H103       27.9560  -49.0326  -52.3092 H         1 UNK         0.0828 
    104 H104       26.4968  -48.0688  -52.1258 H         1 UNK         0.0828 
    105 H105       28.0648  -47.2817  -52.1172 H         1 UNK         0.0828 
    106 H106       29.5036  -48.1738  -54.0476 H         1 UNK         0.3005 
    107 H107       30.4305  -48.5694  -57.3171 H         1 UNK         0.1257 
    108 H108       31.0755  -45.9125  -55.9802 H         1 UNK         0.0775 
    109 H109       32.3783  -46.8804  -56.6083 H         1 UNK         0.0775 
    110 H110       33.3239  -45.2319  -58.5813 H         1 UNK         0.0840 
    111 H111       32.1977  -44.1705  -59.3971 H         1 UNK         0.0840 
    112 H112       32.0778  -48.4098  -55.0415 H         1 UNK         0.2987 
    113 H113       31.4173  -50.5838  -53.0985 H         1 UNK         0.0785 
    114 H114       31.0007  -52.7520  -54.1538 H         1 UNK         0.0798 
    115 H115       32.6408  -52.7372  -53.5279 H         1 UNK         0.0798 
    116 H116       32.3491  -52.5452  -55.2568 H         1 UNK         0.0798 
    117 H117       33.3806  -49.6227  -53.1208 H         1 UNK         0.3079 
    118 H118       36.3066  -49.9786  -54.7535 H         1 UNK         0.0794 
    119 H119       36.5168  -47.5961  -55.4946 H         1 UNK         0.0786 
    120 H120       34.7620  -47.4603  -55.5970 H         1 UNK         0.0786 
    121 H121       35.6296  -48.5443  -56.6740 H         1 UNK         0.0786 
    122 H122       35.2837  -47.7508  -53.2017 H         1 UNK         0.3032 
    123 H123       35.1319  -49.3404  -50.1177 H         1 UNK         0.1094 
    124 H124       37.4479  -47.5041  -50.9509 H         1 UNK         0.0794 
    125 H125       36.8620  -47.7495  -49.3045 H         1 UNK         0.0794 
    126 H126       37.6196  -49.0719  -50.1741 H         1 UNK         0.0794 
    127 H127       35.1530  -46.5715  -50.7985 H         1 UNK         0.3016 
@<TRIPOS>BOND
     1    1    2 1    
     2    1   67 1    
     3    1   68 1    
     4    1   69 1    
     5    2    3 2    
     6    2    4 am   BACKBONE|DICT|INTERRES
     7    4    5 1    
     8    4   70 1    
     9    5    6 1    
    10    5   65 1    
    11    5   71 1    
    12    6    7 1    
    13    6   72 1    
    14    6   73 1    
    15    7    8 1    
    16    8    9 1    
    17    8   74 1    
    18    8   75 1    
    19    9   10 ar   
    20    9   14 ar   
    21   10   11 ar   
    22   10   76 1    
    23   11   12 ar   
    24   11   48 1    
    25   12   13 ar   
    26   12   77 1    
    27   13   14 ar   
    28   13   15 1    
    29   14   78 1    
    30   15   16 1    
    31   15   79 1    
    32   15   80 1    
    33   16   17 1    
    34   17   18 1    
    35   17   81 1    
    36   17   82 1    
    37   18   19 1    
    38   18   22 1    
    39   18   83 1    
    40   19   20 am   BACKBONE|DICT|INTERRES
    41   19   21 2    
    42   20   84 1    
    43   20   85 1    
    44   22   23 am   BACKBONE|DICT|INTERRES
    45   22   86 1    
    46   23   24 2    
    47   23   25 1    
    48   25   26 1    
    49   25   27 1    
    50   25   87 1    
    51   26   88 1    
    52   26   89 1    
    53   26   90 1    
    54   27   28 am   BACKBONE|DICT|INTERRES
    55   27   91 1    
    56   28   29 2    
    57   28   30 1    
    58   30   31 1    
    59   30   32 1    
    60   30   92 1    
    61   31   93 1    
    62   31   94 1    
    63   31   95 1    
    64   32   33 am   BACKBONE|DICT|INTERRES
    65   32   96 1    
    66   33   34 2    
    67   33   35 1    
    68   35   36 1    
    69   35   37 1    
    70   35   97 1    
    71   36   98 1    
    72   36   99 1    
    73   36  100 1    
    74   37   38 am   BACKBONE|DICT|INTERRES
    75   37  101 1    
    76   38   39 2    
    77   38   40 1    
    78   40   41 1    
    79   40   42 1    
    80   40  102 1    
    81   41  103 1    
    82   41  104 1    
    83   41  105 1    
    84   42   43 am   BACKBONE|DICT|INTERRES
    85   42  106 1    
    86   43   44 2    
    87   43   45 1    
    88   45   46 1    
    89   45   49 1    
    90   45  107 1    
    91   46   47 1    
    92   46  108 1    
    93   46  109 1    
    94   47   48 1    
    95   48  110 1    
    96   48  111 1    
    97   49   50 am   BACKBONE|DICT|INTERRES
    98   49  112 1    
    99   50   51 2    
   100   50   52 1    
   101   52   53 1    
   102   52   54 1    
   103   52  113 1    
   104   53  114 1    
   105   53  115 1    
   106   53  116 1    
   107   54   55 am   BACKBONE|DICT|INTERRES
   108   54  117 1    
   109   55   56 2    
   110   55   57 1    
   111   57   58 1    
   112   57   59 1    
   113   57  118 1    
   114   58  119 1    
   115   58  120 1    
   116   58  121 1    
   117   59   60 am   BACKBONE|DICT|INTERRES
   118   59  122 1    
   119   60   61 2    
   120   60   62 1    
   121   62   63 1    
   122   62   64 1    
   123   62  123 1    
   124   63  124 1    
   125   63  125 1    
   126   63  126 1    
   127   64   65 am   BACKBONE|DICT|INTERRES
   128   64  127 1    
   129   65   66 2    
@<TRIPOS>SUBSTRUCTURE
     1 UNK         1 GROUP             0       ****    0 ROOT    
