@<TRIPOS>MOLECULE
3R134
127   129    1
SMALL
USER_CHARGES


@<TRIPOS>ATOM
      1 CA         37.8787  -44.7453  -56.1991 C.3       0 UNK        -0.1968 
      2 C          36.8342  -45.8349  -56.3914 C.2       0 UNK         0.4852 
      3 O          37.0387  -46.7406  -57.2007 O.2       0 UNK        -0.5359 
      4 N          35.7167  -45.7485  -55.6574 N.am      1 UNK        -0.4300 
      5 CA         34.6201  -46.7241  -55.6637 C.3       1 UNK         0.0863 
      6 C6         33.3347  -46.1769  -54.9905 C.3       11 UNK        -0.0953 
      7 S7         33.6090  -45.3609  -53.3767 S.3       11 UNK        -0.2369 
      8 C8         33.2470  -43.6201  -53.7765 C.3       11 UNK         0.0226 
      9 C9         31.7543  -43.3886  -53.9561 C.ar      11 UNK        -0.0699 
     10 C10        30.9276  -43.2862  -52.8346 C.ar      11 UNK        -0.0804 
     11 C11        29.5500  -43.1104  -52.9835 C.ar      11 UNK        -0.0871 
     12 C12        29.0007  -43.0314  -54.2656 C.ar      11 UNK        -0.1008 
     13 C13        29.8181  -43.1182  -55.3980 C.ar      11 UNK        -0.0735 
     14 C14        31.1959  -43.2907  -55.2349 C.ar      11 UNK        -0.0945 
     15 C15        29.2157  -43.0931  -56.7970 C.3       11 UNK         0.0169 
     16 S16        27.9977  -41.7550  -57.0276 S.3       11 UNK        -0.2669 
     17 C17        26.7693  -42.6423  -58.0386 C.3       11 UNK        -0.0850 
     18 CA         25.8687  -43.5864  -57.1758 C.3       10 UNK         0.0855 
     19 C          24.4213  -43.0495  -56.9589 C.2       10 UNK         0.5543 
     20 N          23.4058  -43.9020  -56.8939 N.am      10 UNK        -0.7343 
     21 O          24.2154  -41.8472  -56.8132 O.2       10 UNK        -0.5027 
     22 N          25.9631  -44.9920  -57.6031 N.am      10 UNK        -0.4495 
     23 C          25.6152  -45.4757  -58.8031 C.2       10 UNK         0.4903 
     24 O          25.1249  -44.7900  -59.7019 O.2       10 UNK        -0.4860 
     25 CA         25.8671  -46.9788  -59.0305 C.3       9 UNK         0.0227 
     26 CB         25.7622  -47.3924  -60.5137 C.3       9 UNK        -0.1964 
     27 N          27.1316  -47.4458  -58.4484 N.am      9 UNK        -0.4231 
     28 C          28.3768  -47.0341  -58.7401 C.2       9 UNK         0.5014 
     29 O          28.6328  -46.1728  -59.5827 O.2       9 UNK        -0.5270 
     30 CA         29.5469  -47.6790  -57.9661 C.3       8 UNK         0.0284 
     31 CB         30.2967  -46.6326  -57.1273 C.3       8 UNK        -0.1977 
     32 N          29.1457  -48.7786  -57.0854 N.am      8 UNK        -0.4342 
     33 C          28.8143  -50.0121  -57.4898 C.2       8 UNK         0.5039 
     34 O          28.9055  -50.4022  -58.6538 O.2       8 UNK        -0.5547 
     35 CA         28.2213  -50.9449  -56.4201 C.3       7 UNK         0.0281 
     36 CB         29.3295  -51.6835  -55.6537 C.3       7 UNK        -0.1963 
     37 N          27.3589  -50.2251  -55.4765 N.am      7 UNK        -0.4444 
     38 C          26.1752  -49.6810  -55.7951 C.2       7 UNK         0.5104 
     39 O          25.6640  -49.7599  -56.9110 O.2       7 UNK        -0.5100 
     40 CA         25.4630  -48.8721  -54.6998 C.3       6 UNK         0.0396 
     41 CB         24.6217  -49.7967  -53.8062 C.3       6 UNK        -0.1801 
     42 N          26.3940  -48.1032  -53.8720 N.am      6 UNK        -0.4747 
     43 C          27.0814  -47.0281  -54.2878 C.2       6 UNK         0.5012 
     44 O          26.9866  -46.5461  -55.4172 O.2       6 UNK        -0.5003 
     45 CA         28.0567  -46.4094  -53.2667 C.3       5 UNK         0.0782 
     46 C46        27.2881  -45.4331  -52.3388 C.3       11 UNK        -0.0868 
     47 S47        28.3394  -44.6736  -51.0543 S.3       11 UNK        -0.2515 
     48 C48        28.6566  -43.0257  -51.7569 C.3       11 UNK         0.0199 
     49 N          28.7894  -47.4335  -52.5105 N.am      5 UNK        -0.4607 
     50 C          29.6048  -48.3548  -53.0369 C.2       4 UNK         0.5031 
     51 O          29.8366  -48.4680  -54.2438 O.2       4 UNK        -0.5119 
     52 CA         30.1982  -49.3635  -52.0495 C.3       4 UNK         0.0263 
     53 CB         29.1242  -50.3967  -51.6453 C.3       4 UNK        -0.1967 
     54 N          31.3397  -50.0314  -52.6712 N.am      4 UNK        -0.4237 
     55 C          32.2170  -50.8221  -52.0402 C.2       3 UNK         0.4908 
     56 O          32.1975  -51.0368  -50.8275 O.2       3 UNK        -0.5102 
     57 CA         33.2866  -51.5042  -52.9080 C.3       3 UNK         0.0241 
     58 CB         32.6903  -52.1695  -54.1628 C.3       3 UNK        -0.1971 
     59 N          34.3396  -50.5741  -53.3065 N.am      3 UNK        -0.4139 
     60 C          35.3183  -50.1087  -52.5226 C.2       2 UNK         0.5016 
     61 O          35.4522  -50.4150  -51.3375 O.2       2 UNK        -0.5319 
     62 CA         36.3446  -49.1560  -53.1680 C.3       2 UNK         0.0286 
     63 CB         37.3802  -49.9413  -53.9966 C.3       2 UNK        -0.1963 
     64 N          35.7750  -48.0464  -53.9491 N.am      2 UNK        -0.4790 
     65 C          35.0356  -48.0835  -55.0690 C.2       1 UNK         0.5024 
     66 O          34.6827  -49.1210  -55.6322 O.2       1 UNK        -0.4888 
     67 H67        37.5661  -44.0043  -55.4636 H         1 UNK         0.0892 
     68 H68        38.8182  -45.1823  -55.8616 H         1 UNK         0.0892 
     69 H69        38.0615  -44.2303  -57.1419 H         1 UNK         0.0892 
     70 H70        35.6069  -44.9842  -55.0065 H         1 UNK         0.3107 
     71 H71        34.3736  -46.9168  -56.7105 H         1 UNK         0.0773 
     72 H72        32.8611  -45.4720  -55.6720 H         1 UNK         0.0680 
     73 H73        32.5997  -46.9708  -54.8431 H         1 UNK         0.0680 
     74 H74        33.7977  -43.3235  -54.6705 H         1 UNK         0.0650 
     75 H75        33.6164  -42.9893  -52.9667 H         1 UNK         0.0650 
     76 H76        31.3548  -43.3666  -51.8441 H         1 UNK         0.1397 
     77 H77        27.9328  -42.9124  -54.3836 H         1 UNK         0.1363 
     78 H78        31.8324  -43.3710  -56.1052 H         1 UNK         0.1355 
     79 H79        29.9916  -42.9897  -57.5571 H         1 UNK         0.0707 
     80 H80        28.7434  -44.0605  -56.9705 H         1 UNK         0.0707 
     81 H81        27.3113  -43.1957  -58.8076 H         1 UNK         0.1034 
     82 H82        26.1787  -41.9101  -58.5924 H         1 UNK         0.1034 
     83 H83        26.2718  -43.6160  -56.1632 H         1 UNK         0.0482 
     84 H84        23.5644  -44.8906  -57.0018 H         1 UNK         0.3460 
     85 H85        22.4732  -43.5511  -56.7427 H         1 UNK         0.3460 
     86 H86        26.3415  -45.6319  -56.9074 H         1 UNK         0.2989 
     87 H87        25.0765  -47.5000  -58.4893 H         1 UNK         0.0559 
     88 H88        26.4926  -46.8701  -61.1325 H         1 UNK         0.0848 
     89 H89        24.7742  -47.1640  -60.9151 H         1 UNK         0.0848 
     90 H90        25.9213  -48.4635  -60.6383 H         1 UNK         0.0848 
     91 H91        27.0329  -48.1553  -57.7341 H         1 UNK         0.3144 
     92 H92        30.2404  -48.0729  -58.7120 H         1 UNK         0.0727 
     93 H93        31.1869  -47.0706  -56.6805 H         1 UNK         0.0790 
     94 H94        29.6769  -46.2383  -56.3215 H         1 UNK         0.0790 
     95 H95        30.6227  -45.7901  -57.7385 H         1 UNK         0.0790 
     96 H96        29.1203  -48.5746  -56.0899 H         1 UNK         0.3215 
     97 H97        27.6100  -51.6898  -56.9348 H         1 UNK         0.0863 
     98 H98        29.9654  -50.9940  -55.1010 H         1 UNK         0.0808 
     99 H99        29.9710  -52.2409  -56.3376 H         1 UNK         0.0808 
    100 H100       28.9140  -52.3995  -54.9445 H         1 UNK         0.0808 
    101 H101       27.7192  -50.0774  -54.5462 H         1 UNK         0.3118 
    102 H102       24.7874  -48.1689  -55.1920 H         1 UNK         0.0546 
    103 H103       24.0498  -49.2273  -53.0734 H         1 UNK         0.0828 
    104 H104       25.2399  -50.5149  -53.2661 H         1 UNK         0.0828 
    105 H105       23.9056  -50.3661  -54.4005 H         1 UNK         0.0828 
    106 H106       26.5299  -48.4186  -52.9223 H         1 UNK         0.3005 
    107 H107       28.7967  -45.8423  -53.8357 H         1 UNK         0.1257 
    108 H108       26.4789  -45.9541  -51.8230 H         1 UNK         0.0775 
    109 H109       26.8078  -44.6458  -52.9230 H         1 UNK         0.0775 
    110 H110       27.7106  -42.5360  -51.9939 H         1 UNK         0.0840 
    111 H111       29.1372  -42.4050  -50.9991 H         1 UNK         0.0840 
    112 H112       28.6680  -47.4031  -51.5083 H         1 UNK         0.2987 
    113 H113       30.5456  -48.8215  -51.1674 H         1 UNK         0.0785 
    114 H114       29.4949  -51.0862  -50.8870 H         1 UNK         0.0798 
    115 H115       28.2428  -49.9127  -51.2229 H         1 UNK         0.0798 
    116 H116       28.7953  -50.9907  -52.4987 H         1 UNK         0.0798 
    117 H117       31.4340  -49.8501  -53.6627 H         1 UNK         0.3079 
    118 H118       33.7385  -52.2925  -52.3018 H         1 UNK         0.0794 
    119 H119       31.8308  -52.7920  -53.9093 H         1 UNK         0.0786 
    120 H120       33.4233  -52.8161  -54.6456 H         1 UNK         0.0786 
    121 H121       32.3647  -51.4376  -54.9023 H         1 UNK         0.0786 
    122 H122       34.3253  -50.2335  -54.2657 H         1 UNK         0.3032 
    123 H123       36.8824  -48.6857  -52.3426 H         1 UNK         0.1094 
    124 H124       36.9259  -50.4453  -54.8501 H         1 UNK         0.0794 
    125 H125       38.1638  -49.2848  -54.3750 H         1 UNK         0.0794 
    126 H126       37.8646  -50.7071  -53.3892 H         1 UNK         0.0794 
    127 H127       35.9560  -47.1280  -53.5669 H         1 UNK         0.3016 
@<TRIPOS>BOND
     1    1    2 1    
     2    1   67 1    
     3    1   68 1    
     4    1   69 1    
     5    2    3 2    
     6    2    4 am   BACKBONE|DICT|INTERRES
     7    4    5 1    
     8    4   70 1    
     9    5    6 1    
    10    5   65 1    
    11    5   71 1    
    12    6    7 1    
    13    6   72 1    
    14    6   73 1    
    15    7    8 1    
    16    8    9 1    
    17    8   74 1    
    18    8   75 1    
    19    9   10 ar   
    20    9   14 ar   
    21   10   11 ar   
    22   10   76 1    
    23   11   12 ar   
    24   11   48 1    
    25   12   13 ar   
    26   12   77 1    
    27   13   14 ar   
    28   13   15 1    
    29   14   78 1    
    30   15   16 1    
    31   15   79 1    
    32   15   80 1    
    33   16   17 1    
    34   17   18 1    
    35   17   81 1    
    36   17   82 1    
    37   18   19 1    
    38   18   22 1    
    39   18   83 1    
    40   19   20 am   BACKBONE|DICT|INTERRES
    41   19   21 2    
    42   20   84 1    
    43   20   85 1    
    44   22   23 am   BACKBONE|DICT|INTERRES
    45   22   86 1    
    46   23   24 2    
    47   23   25 1    
    48   25   26 1    
    49   25   27 1    
    50   25   87 1    
    51   26   88 1    
    52   26   89 1    
    53   26   90 1    
    54   27   28 am   BACKBONE|DICT|INTERRES
    55   27   91 1    
    56   28   29 2    
    57   28   30 1    
    58   30   31 1    
    59   30   32 1    
    60   30   92 1    
    61   31   93 1    
    62   31   94 1    
    63   31   95 1    
    64   32   33 am   BACKBONE|DICT|INTERRES
    65   32   96 1    
    66   33   34 2    
    67   33   35 1    
    68   35   36 1    
    69   35   37 1    
    70   35   97 1    
    71   36   98 1    
    72   36   99 1    
    73   36  100 1    
    74   37   38 am   BACKBONE|DICT|INTERRES
    75   37  101 1    
    76   38   39 2    
    77   38   40 1    
    78   40   41 1    
    79   40   42 1    
    80   40  102 1    
    81   41  103 1    
    82   41  104 1    
    83   41  105 1    
    84   42   43 am   BACKBONE|DICT|INTERRES
    85   42  106 1    
    86   43   44 2    
    87   43   45 1    
    88   45   46 1    
    89   45   49 1    
    90   45  107 1    
    91   46   47 1    
    92   46  108 1    
    93   46  109 1    
    94   47   48 1    
    95   48  110 1    
    96   48  111 1    
    97   49   50 am   BACKBONE|DICT|INTERRES
    98   49  112 1    
    99   50   51 2    
   100   50   52 1    
   101   52   53 1    
   102   52   54 1    
   103   52  113 1    
   104   53  114 1    
   105   53  115 1    
   106   53  116 1    
   107   54   55 am   BACKBONE|DICT|INTERRES
   108   54  117 1    
   109   55   56 2    
   110   55   57 1    
   111   57   58 1    
   112   57   59 1    
   113   57  118 1    
   114   58  119 1    
   115   58  120 1    
   116   58  121 1    
   117   59   60 am   BACKBONE|DICT|INTERRES
   118   59  122 1    
   119   60   61 2    
   120   60   62 1    
   121   62   63 1    
   122   62   64 1    
   123   62  123 1    
   124   63  124 1    
   125   63  125 1    
   126   63  126 1    
   127   64   65 am   BACKBONE|DICT|INTERRES
   128   64  127 1    
   129   65   66 2    
@<TRIPOS>SUBSTRUCTURE
     1 UNK         1 GROUP             0       ****    0 ROOT    
