@<TRIPOS>MOLECULE
3R134
127   129    1
SMALL
USER_CHARGES


@<TRIPOS>ATOM
      1 CA         35.8265  -42.7087  -51.6289 C.3       0 UNK        -0.1968 
      2 C          35.9203  -44.0042  -50.8265 C.2       0 UNK         0.4852 
      3 O          36.1550  -43.9512  -49.6199 O.2       0 UNK        -0.5359 
      4 N          35.7554  -45.1813  -51.4407 N.am      1 UNK        -0.4300 
      5 CA         35.5169  -45.4180  -52.8628 C.3       1 UNK         0.0863 
      6 C6         34.0133  -45.2957  -53.2258 C.3       11 UNK        -0.0953 
      7 S7         33.7533  -44.8991  -54.9861 S.3       11 UNK        -0.2369 
      8 C8         32.0698  -45.5334  -55.2562 C.3       11 UNK         0.0226 
      9 C9         31.0180  -44.6476  -54.6043 C.ar      11 UNK        -0.0699 
     10 C10        30.6097  -44.8877  -53.2884 C.ar      11 UNK        -0.0804 
     11 C11        29.6358  -44.0822  -52.6857 C.ar      11 UNK        -0.0871 
     12 C12        29.0783  -43.0276  -53.4139 C.ar      11 UNK        -0.1008 
     13 C13        29.4865  -42.7686  -54.7250 C.ar      11 UNK        -0.0735 
     14 C14        30.4543  -43.5850  -55.3178 C.ar      11 UNK        -0.0945 
     15 C15        28.9016  -41.5808  -55.4744 C.3       11 UNK         0.0169 
     16 S16        27.3639  -42.0191  -56.3410 S.3       11 UNK        -0.2669 
     17 C17        28.0092  -42.4450  -57.9923 C.3       11 UNK        -0.0850 
     18 CA         26.9473  -43.1361  -58.8853 C.3       10 UNK         0.0855 
     19 C          27.4486  -43.2320  -60.3580 C.2       10 UNK         0.5543 
     20 N          27.6808  -44.4124  -60.9199 N.am      10 UNK        -0.7343 
     21 O          27.6274  -42.2043  -61.0071 O.2       10 UNK        -0.5027 
     22 N          26.5051  -44.4101  -58.2986 N.am      10 UNK        -0.4495 
     23 C          25.4111  -45.0912  -58.6609 C.2       10 UNK         0.4903 
     24 O          24.5705  -44.6617  -59.4531 O.2       10 UNK        -0.4860 
     25 CA         25.2413  -46.4949  -58.0406 C.3       9 UNK         0.0227 
     26 CB         24.3446  -47.4161  -58.8934 C.3       9 UNK        -0.1964 
     27 N          26.5114  -47.1693  -57.7343 N.am      9 UNK        -0.4231 
     28 C          27.5201  -47.4313  -58.5825 C.2       9 UNK         0.5014 
     29 O          27.5372  -47.0890  -59.7656 O.2       9 UNK        -0.5270 
     30 CA         28.7228  -48.1939  -58.0067 C.3       8 UNK         0.0284 
     31 CB         29.5993  -47.2617  -57.1542 C.3       8 UNK        -0.1977 
     32 N          28.3204  -49.3522  -57.2103 N.am      8 UNK        -0.4342 
     33 C          27.6976  -50.4392  -57.6881 C.2       8 UNK         0.5039 
     34 O          27.4501  -50.6275  -58.8797 O.2       8 UNK        -0.5547 
     35 CA         27.2626  -51.4876  -56.6539 C.3       7 UNK         0.0281 
     36 CB         28.4410  -52.3941  -56.2595 C.3       7 UNK        -0.1963 
     37 N          26.6966  -50.8514  -55.4624 N.am      7 UNK        -0.4444 
     38 C          25.4447  -50.3773  -55.3861 C.2       7 UNK         0.5104 
     39 O          24.6117  -50.4956  -56.2848 O.2       7 UNK        -0.5100 
     40 CA         25.0446  -49.6487  -54.0898 C.3       6 UNK         0.0396 
     41 CB         24.3552  -50.6221  -53.1208 C.3       6 UNK        -0.1801 
     42 N          26.1706  -49.0055  -53.4075 N.am      6 UNK        -0.4747 
     43 C          26.8084  -47.9129  -53.8526 C.2       6 UNK         0.5012 
     44 O          26.5135  -47.3227  -54.8918 O.2       6 UNK        -0.5003 
     45 CA         28.0197  -47.4420  -53.0245 C.3       5 UNK         0.0782 
     46 C46        27.5686  -46.5321  -51.8543 C.3       11 UNK        -0.0868 
     47 S47        28.9568  -46.0379  -50.7745 S.3       11 UNK        -0.2515 
     48 C48        29.2105  -44.2931  -51.2348 C.3       11 UNK         0.0199 
     49 N          28.8652  -48.5543  -52.5696 N.am      5 UNK        -0.4607 
     50 C          29.4797  -49.4291  -53.3712 C.2       4 UNK         0.5031 
     51 O          29.2910  -49.4933  -54.5872 O.2       4 UNK        -0.5119 
     52 CA         30.4422  -50.4218  -52.7029 C.3       4 UNK         0.0263 
     53 CB         29.7215  -51.7457  -52.4019 C.3       4 UNK        -0.1967 
     54 N          31.5986  -50.6805  -53.5632 N.am      4 UNK        -0.4237 
     55 C          32.5259  -49.7628  -53.8660 C.2       3 UNK         0.4908 
     56 O          32.5774  -48.6414  -53.3540 O.2       3 UNK        -0.5102 
     57 CA         33.5477  -50.1578  -54.9376 C.3       3 UNK         0.0241 
     58 CB         32.8990  -50.1891  -56.3343 C.3       3 UNK        -0.1971 
     59 N          34.6339  -49.1826  -54.9348 N.am      3 UNK        -0.4139 
     60 C          35.9291  -49.4479  -55.1315 C.2       2 UNK         0.5016 
     61 O          36.3639  -50.5736  -55.3806 O.2       2 UNK        -0.5319 
     62 CA         36.9164  -48.2662  -55.0557 C.3       2 UNK         0.0286 
     63 CB         37.4987  -47.9641  -56.4471 C.3       2 UNK        -0.1963 
     64 N          36.3382  -47.0310  -54.5124 N.am      2 UNK        -0.4790 
     65 C          36.0977  -46.8006  -53.2155 C.2       1 UNK         0.5024 
     66 O          36.3166  -47.6247  -52.3232 O.2       1 UNK        -0.4888 
     67 H67        34.9453  -42.6906  -52.2681 H         1 UNK         0.0892 
     68 H68        35.7634  -41.8502  -50.9605 H         1 UNK         0.0892 
     69 H69        36.7117  -42.5827  -52.2516 H         1 UNK         0.0892 
     70 H70        35.8775  -46.0394  -50.9162 H         1 UNK         0.3107 
     71 H71        36.0928  -44.6825  -53.4282 H         1 UNK         0.0773 
     72 H72        33.5402  -44.4979  -52.6525 H         1 UNK         0.0680 
     73 H73        33.4720  -46.2039  -52.9579 H         1 UNK         0.0680 
     74 H74        31.9901  -46.5566  -54.8883 H         1 UNK         0.0650 
     75 H75        31.8933  -45.5843  -56.3311 H         1 UNK         0.0650 
     76 H76        31.0546  -45.7018  -52.7325 H         1 UNK         0.1397 
     77 H77        28.3351  -42.3898  -52.9546 H         1 UNK         0.1363 
     78 H78        30.7804  -43.3863  -56.3293 H         1 UNK         0.1355 
     79 H79        28.6850  -40.7758  -54.7703 H         1 UNK         0.0707 
     80 H80        29.6297  -41.1734  -56.1777 H         1 UNK         0.0707 
     81 H81        28.3586  -41.5193  -58.4547 H         1 UNK         0.1034 
     82 H82        28.8872  -43.0843  -57.8867 H         1 UNK         0.1034 
     83 H83        26.0735  -42.4824  -58.9183 H         1 UNK         0.0482 
     84 H84        28.0005  -44.4447  -61.8745 H         1 UNK         0.3460 
     85 H85        27.5391  -45.2800  -60.4104 H         1 UNK         0.3460 
     86 H86        27.1288  -44.8302  -57.6266 H         1 UNK         0.2989 
     87 H87        24.7430  -46.3432  -57.0821 H         1 UNK         0.0559 
     88 H88        24.7614  -47.5738  -59.8887 H         1 UNK         0.0848 
     89 H89        23.3484  -46.9906  -59.0196 H         1 UNK         0.0848 
     90 H90        24.2212  -48.3924  -58.4237 H         1 UNK         0.0848 
     91 H91        26.6241  -47.4320  -56.7568 H         1 UNK         0.3144 
     92 H92        29.3224  -48.5567  -58.8442 H         1 UNK         0.0727 
     93 H93        30.4889  -47.7783  -56.7948 H         1 UNK         0.0790 
     94 H94        29.0645  -46.8807  -56.2833 H         1 UNK         0.0790 
     95 H95        29.9336  -46.4015  -57.7357 H         1 UNK         0.0790 
     96 H96        28.5563  -49.3296  -56.2187 H         1 UNK         0.3215 
     97 H97        26.4961  -52.1157  -57.1140 H         1 UNK         0.0863 
     98 H98        28.1354  -53.1503  -55.5364 H         1 UNK         0.0808 
     99 H99        29.2677  -51.8295  -55.8284 H         1 UNK         0.0808 
    100 H100       28.8311  -52.9201  -57.1318 H         1 UNK         0.0808 
    101 H101       27.3337  -50.6558  -54.7029 H         1 UNK         0.3118 
    102 H102       24.3250  -48.8725  -54.3595 H         1 UNK         0.0546 
    103 H103       25.0280  -51.4178  -52.7983 H         1 UNK         0.0828 
    104 H104       23.4933  -51.0964  -53.5924 H         1 UNK         0.0828 
    105 H105       23.9915  -50.1071  -52.2315 H         1 UNK         0.0828 
    106 H106       26.4924  -49.4320  -52.5501 H         1 UNK         0.3005 
    107 H107       28.6330  -46.8405  -53.6986 H         1 UNK         0.1257 
    108 H108       26.8360  -47.0457  -51.2285 H         1 UNK         0.0775 
    109 H109       27.0685  -45.6395  -52.2357 H         1 UNK         0.0775 
    110 H110       28.2940  -43.7428  -51.0158 H         1 UNK         0.0840 
    111 H111       29.9808  -43.8729  -50.5869 H         1 UNK         0.0840 
    112 H112       29.0740  -48.5625  -51.5813 H         1 UNK         0.2987 
    113 H113       30.8021  -49.9932  -51.7649 H         1 UNK         0.0785 
    114 H114       30.3844  -52.4527  -51.9026 H         1 UNK         0.0798 
    115 H115       29.3476  -52.2210  -53.3092 H         1 UNK         0.0798 
    116 H116       28.8674  -51.5855  -51.7425 H         1 UNK         0.0798 
    117 H117       31.6112  -51.5650  -54.0491 H         1 UNK         0.3079 
    118 H118       33.9333  -51.1483  -54.6867 H         1 UNK         0.0794 
    119 H119       32.0734  -50.9007  -56.3760 H         1 UNK         0.0786 
    120 H120       33.6192  -50.4856  -57.0971 H         1 UNK         0.0786 
    121 H121       32.5014  -49.2126  -56.6132 H         1 UNK         0.0786 
    122 H122       34.3630  -48.2506  -54.6496 H         1 UNK         0.3032 
    123 H123       37.7353  -48.5797  -54.4038 H         1 UNK         0.1094 
    124 H124       38.2565  -47.1818  -56.3997 H         1 UNK         0.0794 
    125 H125       37.9766  -48.8479  -56.8725 H         1 UNK         0.0794 
    126 H126       36.7260  -47.6435  -57.1471 H         1 UNK         0.0794 
    127 H127       36.1030  -46.3102  -55.1817 H         1 UNK         0.3016 
@<TRIPOS>BOND
     1    1    2 1    
     2    1   67 1    
     3    1   68 1    
     4    1   69 1    
     5    2    3 2    
     6    2    4 am   BACKBONE|DICT|INTERRES
     7    4    5 1    
     8    4   70 1    
     9    5    6 1    
    10    5   65 1    
    11    5   71 1    
    12    6    7 1    
    13    6   72 1    
    14    6   73 1    
    15    7    8 1    
    16    8    9 1    
    17    8   74 1    
    18    8   75 1    
    19    9   10 ar   
    20    9   14 ar   
    21   10   11 ar   
    22   10   76 1    
    23   11   12 ar   
    24   11   48 1    
    25   12   13 ar   
    26   12   77 1    
    27   13   14 ar   
    28   13   15 1    
    29   14   78 1    
    30   15   16 1    
    31   15   79 1    
    32   15   80 1    
    33   16   17 1    
    34   17   18 1    
    35   17   81 1    
    36   17   82 1    
    37   18   19 1    
    38   18   22 1    
    39   18   83 1    
    40   19   20 am   BACKBONE|DICT|INTERRES
    41   19   21 2    
    42   20   84 1    
    43   20   85 1    
    44   22   23 am   BACKBONE|DICT|INTERRES
    45   22   86 1    
    46   23   24 2    
    47   23   25 1    
    48   25   26 1    
    49   25   27 1    
    50   25   87 1    
    51   26   88 1    
    52   26   89 1    
    53   26   90 1    
    54   27   28 am   BACKBONE|DICT|INTERRES
    55   27   91 1    
    56   28   29 2    
    57   28   30 1    
    58   30   31 1    
    59   30   32 1    
    60   30   92 1    
    61   31   93 1    
    62   31   94 1    
    63   31   95 1    
    64   32   33 am   BACKBONE|DICT|INTERRES
    65   32   96 1    
    66   33   34 2    
    67   33   35 1    
    68   35   36 1    
    69   35   37 1    
    70   35   97 1    
    71   36   98 1    
    72   36   99 1    
    73   36  100 1    
    74   37   38 am   BACKBONE|DICT|INTERRES
    75   37  101 1    
    76   38   39 2    
    77   38   40 1    
    78   40   41 1    
    79   40   42 1    
    80   40  102 1    
    81   41  103 1    
    82   41  104 1    
    83   41  105 1    
    84   42   43 am   BACKBONE|DICT|INTERRES
    85   42  106 1    
    86   43   44 2    
    87   43   45 1    
    88   45   46 1    
    89   45   49 1    
    90   45  107 1    
    91   46   47 1    
    92   46  108 1    
    93   46  109 1    
    94   47   48 1    
    95   48  110 1    
    96   48  111 1    
    97   49   50 am   BACKBONE|DICT|INTERRES
    98   49  112 1    
    99   50   51 2    
   100   50   52 1    
   101   52   53 1    
   102   52   54 1    
   103   52  113 1    
   104   53  114 1    
   105   53  115 1    
   106   53  116 1    
   107   54   55 am   BACKBONE|DICT|INTERRES
   108   54  117 1    
   109   55   56 2    
   110   55   57 1    
   111   57   58 1    
   112   57   59 1    
   113   57  118 1    
   114   58  119 1    
   115   58  120 1    
   116   58  121 1    
   117   59   60 am   BACKBONE|DICT|INTERRES
   118   59  122 1    
   119   60   61 2    
   120   60   62 1    
   121   62   63 1    
   122   62   64 1    
   123   62  123 1    
   124   63  124 1    
   125   63  125 1    
   126   63  126 1    
   127   64   65 am   BACKBONE|DICT|INTERRES
   128   64  127 1    
   129   65   66 2    
@<TRIPOS>SUBSTRUCTURE
     1 UNK         1 GROUP             0       ****    0 ROOT    
