@<TRIPOS>MOLECULE
3R134
127   129    1
SMALL
USER_CHARGES


@<TRIPOS>ATOM
      1 CA         30.7050  -46.0371  -48.8947 C.3       0 UNK        -0.1968 
      2 C          31.5276  -46.2882  -50.1489 C.2       0 UNK         0.4852 
      3 O          31.8030  -47.4426  -50.4782 O.2       0 UNK        -0.5359 
      4 N          31.9113  -45.2219  -50.8655 N.am      1 UNK        -0.4300 
      5 CA         32.7216  -45.2901  -52.0886 C.3       1 UNK         0.0863 
      6 C6         33.2116  -43.8885  -52.5280 C.3       11 UNK        -0.0953 
      7 S7         34.7430  -43.9766  -53.5177 S.3       11 UNK        -0.2369 
      8 C8         34.4026  -42.8077  -54.8723 C.3       11 UNK         0.0226 
      9 C9         33.2143  -43.2296  -55.7247 C.ar      11 UNK        -0.0699 
     10 C10        33.2902  -44.3717  -56.5277 C.ar      11 UNK        -0.0804 
     11 C11        32.1974  -44.7656  -57.3054 C.ar      11 UNK        -0.0871 
     12 C12        31.0236  -44.0049  -57.2794 C.ar      11 UNK        -0.1008 
     13 C13        30.9443  -42.8499  -56.4953 C.ar      11 UNK        -0.0735 
     14 C14        32.0415  -42.4685  -55.7192 C.ar      11 UNK        -0.0945 
     15 C15        29.6813  -42.0037  -56.4971 C.3       11 UNK         0.0169 
     16 S16        28.6198  -42.4111  -55.0802 S.3       11 UNK        -0.2669 
     17 C17        27.1305  -41.4136  -55.4446 C.3       11 UNK        -0.0850 
     18 CA         25.9837  -42.2136  -56.1233 C.3       10 UNK         0.0855 
     19 C          26.2327  -42.4094  -57.6490 C.2       10 UNK         0.5543 
     20 N          26.3726  -43.6258  -58.1619 N.am      10 UNK        -0.7343 
     21 O          26.2938  -41.4277  -58.3851 O.2       10 UNK        -0.5027 
     22 N          25.6709  -43.4393  -55.3749 N.am      10 UNK        -0.4495 
     23 C          24.5393  -44.1429  -55.4756 C.2       10 UNK         0.4903 
     24 O          23.5568  -43.7945  -56.1331 O.2       10 UNK        -0.4860 
     25 CA         24.5146  -45.4825  -54.7188 C.3       9 UNK         0.0227 
     26 CB         23.3749  -45.5111  -53.6867 C.3       9 UNK        -0.1964 
     27 N          24.3850  -46.6288  -55.6236 N.am      9 UNK        -0.4231 
     28 C          25.2191  -46.9203  -56.6315 C.2       9 UNK         0.5014 
     29 O          26.2011  -46.2368  -56.9355 O.2       9 UNK        -0.5270 
     30 CA         24.8790  -48.1733  -57.4579 C.3       8 UNK         0.0284 
     31 CB         23.8619  -47.8296  -58.5588 C.3       8 UNK        -0.1977 
     32 N          26.0803  -48.7364  -58.0780 N.am      8 UNK        -0.4342 
     33 C          27.0564  -49.3608  -57.4070 C.2       8 UNK         0.5039 
     34 O          26.9681  -49.6795  -56.2178 O.2       8 UNK        -0.5547 
     35 CA         28.3317  -49.6715  -58.2083 C.3       7 UNK         0.0281 
     36 CB         28.9492  -48.3839  -58.7851 C.3       7 UNK        -0.1963 
     37 N          29.3191  -50.3155  -57.3427 N.am      7 UNK        -0.4444 
     38 C          29.8651  -51.5197  -57.5375 C.2       7 UNK         0.5104 
     39 O          29.6526  -52.2203  -58.5299 O.2       7 UNK        -0.5100 
     40 CA         30.8048  -52.0161  -56.4221 C.3       6 UNK         0.0396 
     41 CB         31.3822  -53.4236  -56.6829 C.3       6 UNK        -0.1801 
     42 N          31.8671  -51.0511  -56.1224 N.am      6 UNK        -0.4747 
     43 C          32.8710  -50.6433  -56.9155 C.2       6 UNK         0.5012 
     44 O          33.0818  -51.0897  -58.0443 O.2       6 UNK        -0.5003 
     45 CA         33.8134  -49.5508  -56.3532 C.3       5 UNK         0.0782 
     46 C46        33.7012  -48.2021  -57.1130 C.3       11 UNK        -0.0868 
     47 S47        32.0136  -47.5205  -57.2266 S.3       11 UNK        -0.2515 
     48 C48        32.2877  -46.0022  -58.1860 C.3       11 UNK         0.0199 
     49 N          33.6857  -49.3822  -54.8988 N.am      5 UNK        -0.4607 
     50 C          34.2499  -50.2059  -54.0025 C.2       4 UNK         0.5031 
     51 O          34.9779  -51.1504  -54.3098 O.2       4 UNK        -0.5119 
     52 CA         33.9398  -49.9587  -52.5157 C.3       4 UNK         0.0263 
     53 CB         34.8135  -48.8257  -51.9541 C.3       4 UNK        -0.1967 
     54 N          32.5254  -49.6727  -52.2656 N.am      4 UNK        -0.4237 
     55 C          31.5230  -50.5406  -52.4715 C.2       3 UNK         0.4908 
     56 O          31.6839  -51.6991  -52.8541 O.2       3 UNK        -0.5102 
     57 CA         30.0948  -50.0236  -52.2416 C.3       3 UNK         0.0241 
     58 CB         29.6821  -50.1700  -50.7679 C.3       3 UNK        -0.1971 
     59 N          29.9462  -48.6319  -52.6689 N.am      3 UNK        -0.4139 
     60 C          29.8940  -48.2483  -53.9524 C.2       2 UNK         0.5016 
     61 O          29.9079  -49.0352  -54.8972 O.2       2 UNK        -0.5319 
     62 CA         29.8422  -46.7350  -54.2245 C.3       2 UNK         0.0286 
     63 CB         28.3912  -46.2386  -54.1489 C.3       2 UNK        -0.1963 
     64 N          30.6858  -45.9525  -53.3142 N.am      2 UNK        -0.4790 
     65 C          32.0216  -46.0673  -53.2278 C.2       1 UNK         0.5024 
     66 O          32.6875  -46.8158  -53.9426 O.2       1 UNK        -0.4888 
     67 H67        29.7434  -46.5441  -48.9697 H         1 UNK         0.0892 
     68 H68        31.2281  -46.4267  -48.0218 H         1 UNK         0.0892 
     69 H69        30.5187  -44.9755  -48.7337 H         1 UNK         0.0892 
     70 H70        31.6556  -44.2958  -50.5534 H         1 UNK         0.3107 
     71 H71        33.6035  -45.8730  -51.8148 H         1 UNK         0.0773 
     72 H72        33.4493  -43.2826  -51.6523 H         1 UNK         0.0680 
     73 H73        32.4270  -43.3472  -53.0579 H         1 UNK         0.0680 
     74 H74        35.2880  -42.7366  -55.5053 H         1 UNK         0.0650 
     75 H75        34.2472  -41.8136  -54.4503 H         1 UNK         0.0650 
     76 H76        34.1966  -44.9611  -56.5351 H         1 UNK         0.1397 
     77 H77        30.1729  -44.3065  -57.8756 H         1 UNK         0.1363 
     78 H78        31.9774  -41.5792  -55.1071 H         1 UNK         0.1355 
     79 H79        29.1319  -42.1575  -57.4265 H         1 UNK         0.0707 
     80 H80        29.9415  -40.9446  -56.4634 H         1 UNK         0.0707 
     81 H81        26.7688  -41.0185  -54.4942 H         1 UNK         0.1034 
     82 H82        27.4020  -40.5334  -56.0311 H         1 UNK         0.1034 
     83 H83        25.0934  -41.5840  -56.0668 H         1 UNK         0.0482 
     84 H84        26.3262  -44.4559  -57.5764 H         1 UNK         0.3460 
     85 H85        26.5278  -43.7244  -59.1516 H         1 UNK         0.3460 
     86 H86        26.4404  -43.8195  -54.8436 H         1 UNK         0.2989 
     87 H87        25.4562  -45.6003  -54.1790 H         1 UNK         0.0559 
     88 H88        22.3957  -45.4447  -54.1629 H         1 UNK         0.0848 
     89 H89        23.4561  -44.6725  -52.9937 H         1 UNK         0.0848 
     90 H90        23.3985  -46.4240  -53.0913 H         1 UNK         0.0848 
     91 H91        23.5860  -47.2277  -55.4741 H         1 UNK         0.3144 
     92 H92        24.4448  -48.9261  -56.7963 H         1 UNK         0.0727 
     93 H93        22.9377  -47.4385  -58.1311 H         1 UNK         0.0790 
     94 H94        23.5978  -48.7099  -59.1453 H         1 UNK         0.0790 
     95 H95        24.2480  -47.0724  -59.2429 H         1 UNK         0.0790 
     96 H96        26.2442  -48.4837  -59.0413 H         1 UNK         0.3215 
     97 H97        28.0540  -50.3339  -59.0307 H         1 UNK         0.0863 
     98 H98        29.1148  -47.6379  -58.0061 H         1 UNK         0.0808 
     99 H99        28.3045  -47.9300  -59.5379 H         1 UNK         0.0808 
    100 H100       29.9070  -48.5852  -59.2653 H         1 UNK         0.0808 
    101 H101       29.5065  -49.8340  -56.4608 H         1 UNK         0.3118 
    102 H102       30.1971  -52.0784  -55.5180 H         1 UNK         0.0546 
    103 H103       31.9725  -53.4613  -57.5987 H         1 UNK         0.0828 
    104 H104       30.5820  -54.1575  -56.7847 H         1 UNK         0.0828 
    105 H105       32.0174  -53.7488  -55.8591 H         1 UNK         0.0828 
    106 H106       31.7660  -50.5709  -55.2377 H         1 UNK         0.3005 
    107 H107       34.8238  -49.9199  -56.5452 H         1 UNK         0.1257 
    108 H108       34.0791  -48.3269  -58.1294 H         1 UNK         0.0775 
    109 H109       34.3463  -47.4578  -56.6438 H         1 UNK         0.0775 
    110 H110       33.2557  -46.0350  -58.6879 H         1 UNK         0.0840 
    111 H111       31.5398  -45.9553  -58.9790 H         1 UNK         0.0840 
    112 H112       33.1473  -48.5797  -54.5794 H         1 UNK         0.2987 
    113 H113       34.1856  -50.8726  -51.9707 H         1 UNK         0.0785 
    114 H114       35.8713  -49.0818  -52.0256 H         1 UNK         0.0798 
    115 H115       34.5949  -48.6361  -50.9029 H         1 UNK         0.0798 
    116 H116       34.6707  -47.8943  -52.5009 H         1 UNK         0.0798 
    117 H117       32.3001  -48.7604  -51.8788 H         1 UNK         0.3079 
    118 H118       29.4194  -50.6382  -52.8414 H         1 UNK         0.0794 
    119 H119       29.7411  -51.2123  -50.4515 H         1 UNK         0.0786 
    120 H120       28.6547  -49.8419  -50.6095 H         1 UNK         0.0786 
    121 H121       30.3252  -49.5934  -50.1029 H         1 UNK         0.0786 
    122 H122       29.9968  -47.9239  -51.9500 H         1 UNK         0.3032 
    123 H123       30.2042  -46.5681  -55.2402 H         1 UNK         0.1094 
    124 H124       27.7434  -46.8478  -54.7810 H         1 UNK         0.0794 
    125 H125       27.9941  -46.2846  -53.1345 H         1 UNK         0.0794 
    126 H126       28.3073  -45.2133  -54.5027 H         1 UNK         0.0794 
    127 H127       30.2167  -45.3155  -52.6873 H         1 UNK         0.3016 
@<TRIPOS>BOND
     1    1    2 1    
     2    1   67 1    
     3    1   68 1    
     4    1   69 1    
     5    2    3 2    
     6    2    4 am   BACKBONE|DICT|INTERRES
     7    4    5 1    
     8    4   70 1    
     9    5    6 1    
    10    5   65 1    
    11    5   71 1    
    12    6    7 1    
    13    6   72 1    
    14    6   73 1    
    15    7    8 1    
    16    8    9 1    
    17    8   74 1    
    18    8   75 1    
    19    9   10 ar   
    20    9   14 ar   
    21   10   11 ar   
    22   10   76 1    
    23   11   12 ar   
    24   11   48 1    
    25   12   13 ar   
    26   12   77 1    
    27   13   14 ar   
    28   13   15 1    
    29   14   78 1    
    30   15   16 1    
    31   15   79 1    
    32   15   80 1    
    33   16   17 1    
    34   17   18 1    
    35   17   81 1    
    36   17   82 1    
    37   18   19 1    
    38   18   22 1    
    39   18   83 1    
    40   19   20 am   BACKBONE|DICT|INTERRES
    41   19   21 2    
    42   20   84 1    
    43   20   85 1    
    44   22   23 am   BACKBONE|DICT|INTERRES
    45   22   86 1    
    46   23   24 2    
    47   23   25 1    
    48   25   26 1    
    49   25   27 1    
    50   25   87 1    
    51   26   88 1    
    52   26   89 1    
    53   26   90 1    
    54   27   28 am   BACKBONE|DICT|INTERRES
    55   27   91 1    
    56   28   29 2    
    57   28   30 1    
    58   30   31 1    
    59   30   32 1    
    60   30   92 1    
    61   31   93 1    
    62   31   94 1    
    63   31   95 1    
    64   32   33 am   BACKBONE|DICT|INTERRES
    65   32   96 1    
    66   33   34 2    
    67   33   35 1    
    68   35   36 1    
    69   35   37 1    
    70   35   97 1    
    71   36   98 1    
    72   36   99 1    
    73   36  100 1    
    74   37   38 am   BACKBONE|DICT|INTERRES
    75   37  101 1    
    76   38   39 2    
    77   38   40 1    
    78   40   41 1    
    79   40   42 1    
    80   40  102 1    
    81   41  103 1    
    82   41  104 1    
    83   41  105 1    
    84   42   43 am   BACKBONE|DICT|INTERRES
    85   42  106 1    
    86   43   44 2    
    87   43   45 1    
    88   45   46 1    
    89   45   49 1    
    90   45  107 1    
    91   46   47 1    
    92   46  108 1    
    93   46  109 1    
    94   47   48 1    
    95   48  110 1    
    96   48  111 1    
    97   49   50 am   BACKBONE|DICT|INTERRES
    98   49  112 1    
    99   50   51 2    
   100   50   52 1    
   101   52   53 1    
   102   52   54 1    
   103   52  113 1    
   104   53  114 1    
   105   53  115 1    
   106   53  116 1    
   107   54   55 am   BACKBONE|DICT|INTERRES
   108   54  117 1    
   109   55   56 2    
   110   55   57 1    
   111   57   58 1    
   112   57   59 1    
   113   57  118 1    
   114   58  119 1    
   115   58  120 1    
   116   58  121 1    
   117   59   60 am   BACKBONE|DICT|INTERRES
   118   59  122 1    
   119   60   61 2    
   120   60   62 1    
   121   62   63 1    
   122   62   64 1    
   123   62  123 1    
   124   63  124 1    
   125   63  125 1    
   126   63  126 1    
   127   64   65 am   BACKBONE|DICT|INTERRES
   128   64  127 1    
   129   65   66 2    
@<TRIPOS>SUBSTRUCTURE
     1 UNK         1 GROUP             0       ****    0 ROOT    
