@<TRIPOS>MOLECULE
3R134
127   129    1
SMALL
USER_CHARGES


@<TRIPOS>ATOM
      1 CA         31.1396  -43.8591  -48.0718 C.3       0 UNK        -0.1968 
      2 C          32.4237  -44.5784  -48.4576 C.2       0 UNK         0.4852 
      3 O          33.0888  -45.1485  -47.5914 O.2       0 UNK        -0.5359 
      4 N          32.7774  -44.5535  -49.7497 N.am      1 UNK        -0.4300 
      5 CA         33.9658  -45.2079  -50.3113 C.3       1 UNK         0.0863 
      6 C6         34.3181  -44.6533  -51.7160 C.3       11 UNK        -0.0953 
      7 S7         32.9556  -44.7809  -52.9264 S.3       11 UNK        -0.2369 
      8 C8         33.5021  -43.5741  -54.1699 C.3       11 UNK         0.0226 
      9 C9         32.4712  -43.4349  -55.2781 C.ar      11 UNK        -0.0699 
     10 C10        32.5188  -44.2752  -56.3940 C.ar      11 UNK        -0.0804 
     11 C11        31.5541  -44.1748  -57.4067 C.ar      11 UNK        -0.0871 
     12 C12        30.5540  -43.2016  -57.2951 C.ar      11 UNK        -0.1008 
     13 C13        30.5133  -42.3366  -56.1984 C.ar      11 UNK        -0.0735 
     14 C14        31.4698  -42.4649  -55.1880 C.ar      11 UNK        -0.0945 
     15 C15        29.4703  -41.2310  -56.1204 C.3       11 UNK         0.0169 
     16 S16        28.1142  -41.6359  -54.9762 S.3       11 UNK        -0.2669 
     17 C17        26.9294  -42.5345  -56.0416 C.3       11 UNK        -0.0850 
     18 CA         26.6704  -43.9956  -55.5747 C.3       10 UNK         0.0855 
     19 C          25.9387  -44.1281  -54.2110 C.2       10 UNK         0.5543 
     20 N          25.8237  -45.3392  -53.6838 N.am      10 UNK        -0.7343 
     21 O          25.4319  -43.1605  -53.6484 O.2       10 UNK        -0.5027 
     22 N          25.9414  -44.7871  -56.5729 N.am      10 UNK        -0.4495 
     23 C          26.4127  -45.2212  -57.7441 C.2       10 UNK         0.4903 
     24 O          27.5390  -44.9725  -58.1749 O.2       10 UNK        -0.4860 
     25 CA         25.4547  -46.0814  -58.5757 C.3       9 UNK         0.0227 
     26 CB         25.4035  -45.6220  -60.0450 C.3       9 UNK        -0.1964 
     27 N          25.8798  -47.4766  -58.5018 N.am      9 UNK        -0.4231 
     28 C          25.0660  -48.5360  -58.6043 C.2       9 UNK         0.5014 
     29 O          23.8471  -48.4498  -58.7619 O.2       9 UNK        -0.5270 
     30 CA         25.7091  -49.9296  -58.5171 C.3       8 UNK         0.0284 
     31 CB         26.4494  -50.2799  -59.8195 C.3       8 UNK        -0.1977 
     32 N          26.6277  -50.0236  -57.3821 N.am      8 UNK        -0.4342 
     33 C          26.2801  -50.4358  -56.1540 C.2       8 UNK         0.5039 
     34 O          25.1594  -50.8590  -55.8668 O.2       8 UNK        -0.5547 
     35 CA         27.3528  -50.3650  -55.0478 C.3       7 UNK         0.0281 
     36 CB         28.0577  -51.7212  -54.8867 C.3       7 UNK        -0.1963 
     37 N          28.3575  -49.3258  -55.2763 N.am      7 UNK        -0.4444 
     38 C          28.1014  -48.0115  -55.3009 C.2       7 UNK         0.5104 
     39 O          27.0091  -47.5180  -55.0238 O.2       7 UNK        -0.5100 
     40 CA         29.2441  -47.0978  -55.7631 C.3       6 UNK         0.0396 
     41 CB         30.0432  -46.5787  -54.5596 C.3       6 UNK        -0.1801 
     42 N          30.1342  -47.7386  -56.7356 N.am      6 UNK        -0.4747 
     43 C          29.7747  -48.1189  -57.9727 C.2       6 UNK         0.5012 
     44 O          28.6282  -48.0235  -58.4066 O.2       6 UNK        -0.5003 
     45 CA         30.8658  -48.7559  -58.8585 C.3       5 UNK         0.0782 
     46 C46        31.6997  -47.7023  -59.6328 C.3       11 UNK        -0.0868 
     47 S47        32.6350  -46.5450  -58.5707 S.3       11 UNK        -0.2515 
     48 C48        31.5433  -45.0764  -58.6423 C.3       11 UNK         0.0199 
     49 N          31.7004  -49.6819  -58.0910 N.am      5 UNK        -0.4607 
     50 C          31.2725  -50.8677  -57.6344 C.2       4 UNK         0.5031 
     51 O          30.1667  -51.3406  -57.8955 O.2       4 UNK        -0.5119 
     52 CA         32.2200  -51.6376  -56.6980 C.3       4 UNK         0.0263 
     53 CB         33.1497  -52.5560  -57.5068 C.3       4 UNK        -0.1967 
     54 N          33.0208  -50.7609  -55.8359 N.am      4 UNK        -0.4237 
     55 C          32.5092  -49.9298  -54.9178 C.2       3 UNK         0.4908 
     56 O          31.3010  -49.8150  -54.6958 O.2       3 UNK        -0.5102 
     57 CA         33.5169  -49.0289  -54.1855 C.3       3 UNK         0.0241 
     58 CB         33.8410  -47.7885  -55.0362 C.3       3 UNK        -0.1971 
     59 N          33.0169  -48.5862  -52.8844 N.am      3 UNK        -0.4139 
     60 C          32.8586  -49.3707  -51.8091 C.2       2 UNK         0.5016 
     61 O          33.1611  -50.5658  -51.7851 O.2       2 UNK        -0.5319 
     62 CA         32.2725  -48.6966  -50.5490 C.3       2 UNK         0.0286 
     63 CB         32.6101  -49.4579  -49.2489 C.3       2 UNK        -0.1963 
     64 N          32.6286  -47.2741  -50.4279 N.am      2 UNK        -0.4790 
     65 C          33.8625  -46.7489  -50.3290 C.2       1 UNK         0.5024 
     66 O          34.8950  -47.4184  -50.2752 O.2       1 UNK        -0.4888 
     67 H67        30.6554  -43.3979  -48.9324 H         1 UNK         0.0892 
     68 H68        30.4368  -44.5609  -47.6232 H         1 UNK         0.0892 
     69 H69        31.3522  -43.0770  -47.3434 H         1 UNK         0.0892 
     70 H70        32.1990  -44.0647  -50.4190 H         1 UNK         0.3107 
     71 H71        34.8044  -44.9690  -49.6532 H         1 UNK         0.0773 
     72 H72        35.1976  -45.1559  -52.1237 H         1 UNK         0.0680 
     73 H73        34.5971  -43.6027  -51.6214 H         1 UNK         0.0680 
     74 H74        34.4614  -43.8896  -54.5832 H         1 UNK         0.0650 
     75 H75        33.6709  -42.6078  -53.6920 H         1 UNK         0.0650 
     76 H76        33.3070  -45.0111  -56.4540 H         1 UNK         0.1397 
     77 H77        29.8072  -43.1108  -58.0729 H         1 UNK         0.1363 
     78 H78        31.4359  -41.8049  -54.3318 H         1 UNK         0.1355 
     79 H79        29.9519  -40.3168  -55.7699 H         1 UNK         0.0707 
     80 H80        29.0736  -40.9951  -57.1089 H         1 UNK         0.0707 
     81 H81        25.9934  -41.9745  -56.0768 H         1 UNK         0.1034 
     82 H82        27.3102  -42.5332  -57.0630 H         1 UNK         0.1034 
     83 H83        27.6458  -44.4626  -55.4341 H         1 UNK         0.0482 
     84 H84        26.2209  -46.1494  -54.1576 H         1 UNK         0.3460 
     85 H85        25.3376  -45.4555  -52.8093 H         1 UNK         0.3460 
     86 H86        25.0163  -45.0737  -56.2824 H         1 UNK         0.2989 
     87 H87        24.4522  -45.9850  -58.1529 H         1 UNK         0.0559 
     88 H88        26.3687  -45.7434  -60.5386 H         1 UNK         0.0848 
     89 H89        25.1300  -44.5686  -60.1153 H         1 UNK         0.0848 
     90 H90        24.6647  -46.1878  -60.6126 H         1 UNK         0.0848 
     91 H91        26.8839  -47.6247  -58.3916 H         1 UNK         0.3144 
     92 H92        24.9058  -50.6595  -58.3935 H         1 UNK         0.0727 
     93 H93        26.8751  -51.2825  -59.7739 H         1 UNK         0.0790 
     94 H94        27.2598  -49.5835  -60.0344 H         1 UNK         0.0790 
     95 H95        25.7676  -50.2557  -60.6706 H         1 UNK         0.0790 
     96 H96        27.5599  -49.6547  -57.5244 H         1 UNK         0.3215 
     97 H97        26.8417  -50.1305  -54.1115 H         1 UNK         0.0863 
     98 H98        28.7847  -51.6976  -54.0745 H         1 UNK         0.0808 
     99 H99        28.5819  -52.0140  -55.7968 H         1 UNK         0.0808 
    100 H100       27.3389  -52.5089  -54.6570 H         1 UNK         0.0808 
    101 H101       29.3144  -49.6257  -55.4320 H         1 UNK         0.3118 
    102 H102       28.8014  -46.2373  -56.2616 H         1 UNK         0.0546 
    103 H103       30.8117  -45.8740  -54.8707 H         1 UNK         0.0828 
    104 H104       30.5239  -47.3858  -54.0082 H         1 UNK         0.0828 
    105 H105       29.3927  -46.0508  -53.8610 H         1 UNK         0.0828 
    106 H106       31.0889  -47.8894  -56.4472 H         1 UNK         0.3005 
    107 H107       30.3372  -49.3494  -59.6091 H         1 UNK         0.1257 
    108 H108       31.0576  -47.1400  -60.3134 H         1 UNK         0.0775 
    109 H109       32.4173  -48.2129  -60.2770 H         1 UNK         0.0775 
    110 H110       31.8178  -44.4833  -59.5155 H         1 UNK         0.0840 
    111 H111       30.5147  -45.4027  -58.8046 H         1 UNK         0.0840 
    112 H112       32.6264  -49.3628  -57.8479 H         1 UNK         0.2987 
    113 H113       31.6004  -52.2617  -56.0501 H         1 UNK         0.0785 
    114 H114       32.5739  -53.2325  -58.1403 H         1 UNK         0.0798 
    115 H115       33.7649  -53.1742  -56.8527 H         1 UNK         0.0798 
    116 H116       33.8155  -51.9879  -58.1579 H         1 UNK         0.0798 
    117 H117       34.0225  -50.7913  -55.9639 H         1 UNK         0.3079 
    118 H118       34.4360  -49.5952  -54.0203 H         1 UNK         0.0794 
    119 H119       32.9539  -47.1833  -55.2236 H         1 UNK         0.0786 
    120 H120       34.2560  -48.0677  -56.0054 H         1 UNK         0.0786 
    121 H121       34.5776  -47.1526  -54.5443 H         1 UNK         0.0786 
    122 H122       32.7414  -47.6182  -52.8101 H         1 UNK         0.3032 
    123 H123       31.1890  -48.7320  -50.6757 H         1 UNK         0.1094 
    124 H124       33.6863  -49.5329  -49.0905 H         1 UNK         0.0794 
    125 H125       32.1763  -48.9671  -48.3777 H         1 UNK         0.0794 
    126 H126       32.2152  -50.4742  -49.2764 H         1 UNK         0.0794 
    127 H127       31.8558  -46.6239  -50.4675 H         1 UNK         0.3016 
@<TRIPOS>BOND
     1    1    2 1    
     2    1   67 1    
     3    1   68 1    
     4    1   69 1    
     5    2    3 2    
     6    2    4 am   BACKBONE|DICT|INTERRES
     7    4    5 1    
     8    4   70 1    
     9    5    6 1    
    10    5   65 1    
    11    5   71 1    
    12    6    7 1    
    13    6   72 1    
    14    6   73 1    
    15    7    8 1    
    16    8    9 1    
    17    8   74 1    
    18    8   75 1    
    19    9   10 ar   
    20    9   14 ar   
    21   10   11 ar   
    22   10   76 1    
    23   11   12 ar   
    24   11   48 1    
    25   12   13 ar   
    26   12   77 1    
    27   13   14 ar   
    28   13   15 1    
    29   14   78 1    
    30   15   16 1    
    31   15   79 1    
    32   15   80 1    
    33   16   17 1    
    34   17   18 1    
    35   17   81 1    
    36   17   82 1    
    37   18   19 1    
    38   18   22 1    
    39   18   83 1    
    40   19   20 am   BACKBONE|DICT|INTERRES
    41   19   21 2    
    42   20   84 1    
    43   20   85 1    
    44   22   23 am   BACKBONE|DICT|INTERRES
    45   22   86 1    
    46   23   24 2    
    47   23   25 1    
    48   25   26 1    
    49   25   27 1    
    50   25   87 1    
    51   26   88 1    
    52   26   89 1    
    53   26   90 1    
    54   27   28 am   BACKBONE|DICT|INTERRES
    55   27   91 1    
    56   28   29 2    
    57   28   30 1    
    58   30   31 1    
    59   30   32 1    
    60   30   92 1    
    61   31   93 1    
    62   31   94 1    
    63   31   95 1    
    64   32   33 am   BACKBONE|DICT|INTERRES
    65   32   96 1    
    66   33   34 2    
    67   33   35 1    
    68   35   36 1    
    69   35   37 1    
    70   35   97 1    
    71   36   98 1    
    72   36   99 1    
    73   36  100 1    
    74   37   38 am   BACKBONE|DICT|INTERRES
    75   37  101 1    
    76   38   39 2    
    77   38   40 1    
    78   40   41 1    
    79   40   42 1    
    80   40  102 1    
    81   41  103 1    
    82   41  104 1    
    83   41  105 1    
    84   42   43 am   BACKBONE|DICT|INTERRES
    85   42  106 1    
    86   43   44 2    
    87   43   45 1    
    88   45   46 1    
    89   45   49 1    
    90   45  107 1    
    91   46   47 1    
    92   46  108 1    
    93   46  109 1    
    94   47   48 1    
    95   48  110 1    
    96   48  111 1    
    97   49   50 am   BACKBONE|DICT|INTERRES
    98   49  112 1    
    99   50   51 2    
   100   50   52 1    
   101   52   53 1    
   102   52   54 1    
   103   52  113 1    
   104   53  114 1    
   105   53  115 1    
   106   53  116 1    
   107   54   55 am   BACKBONE|DICT|INTERRES
   108   54  117 1    
   109   55   56 2    
   110   55   57 1    
   111   57   58 1    
   112   57   59 1    
   113   57  118 1    
   114   58  119 1    
   115   58  120 1    
   116   58  121 1    
   117   59   60 am   BACKBONE|DICT|INTERRES
   118   59  122 1    
   119   60   61 2    
   120   60   62 1    
   121   62   63 1    
   122   62   64 1    
   123   62  123 1    
   124   63  124 1    
   125   63  125 1    
   126   63  126 1    
   127   64   65 am   BACKBONE|DICT|INTERRES
   128   64  127 1    
   129   65   66 2    
@<TRIPOS>SUBSTRUCTURE
     1 UNK         1 GROUP             0       ****    0 ROOT    
