@<TRIPOS>MOLECULE
3R134
127   129    1
SMALL
USER_CHARGES


@<TRIPOS>ATOM
      1 CA         33.2432  -47.0198  -51.4388 C.3       0 UNK        -0.1968 
      2 C          34.2895  -46.5221  -52.4221 C.2       0 UNK         0.4852 
      3 O          35.4852  -46.6376  -52.1465 O.2       0 UNK        -0.5359 
      4 N          33.8467  -45.9725  -53.5586 N.am      1 UNK        -0.4300 
      5 CA         34.6940  -45.4387  -54.6225 C.3       1 UNK         0.0863 
      6 C6         34.5002  -43.9147  -54.8197 C.3       11 UNK        -0.0953 
      7 S7         34.9315  -42.9807  -53.3109 S.3       11 UNK        -0.2369 
      8 C8         33.5270  -41.8366  -53.1344 C.3       11 UNK         0.0226 
      9 C9         32.2048  -42.5312  -52.8272 C.ar      11 UNK        -0.0699 
     10 C10        31.9441  -43.0396  -51.5493 C.ar      11 UNK        -0.0804 
     11 C11        30.6894  -43.5808  -51.2402 C.ar      11 UNK        -0.0871 
     12 C12        29.6967  -43.6126  -52.2241 C.ar      11 UNK        -0.1008 
     13 C13        29.9584  -43.1442  -53.5135 C.ar      11 UNK        -0.0735 
     14 C14        31.2117  -42.6024  -53.8082 C.ar      11 UNK        -0.0945 
     15 C15        28.8821  -43.1967  -54.5840 C.3       11 UNK         0.0169 
     16 S16        28.9946  -44.7322  -55.5497 S.3       11 UNK        -0.2669 
     17 C17        27.7800  -44.3646  -56.8603 C.3       11 UNK        -0.0850 
     18 CA         27.1848  -45.6506  -57.4987 C.3       10 UNK         0.0855 
     19 C          25.9045  -45.3768  -58.3476 C.2       10 UNK         0.5543 
     20 N          25.6423  -46.1101  -59.4234 N.am      10 UNK        -0.7343 
     21 O          25.1078  -44.5072  -58.0043 O.2       10 UNK        -0.5027 
     22 N          28.1907  -46.4980  -58.1564 N.am      10 UNK        -0.4495 
     23 C          28.8896  -46.2061  -59.2622 C.2       10 UNK         0.4903 
     24 O          28.8916  -45.1035  -59.8101 O.2       10 UNK        -0.4860 
     25 CA         29.6843  -47.3617  -59.9040 C.3       9 UNK         0.0227 
     26 CB         31.1501  -47.3245  -59.4399 C.3       9 UNK        -0.1964 
     27 N          29.1151  -48.6873  -59.6277 N.am      9 UNK        -0.4231 
     28 C          27.8782  -49.0918  -59.9574 C.2       9 UNK         0.5014 
     29 O          27.0918  -48.4194  -60.6261 O.2       9 UNK        -0.5270 
     30 CA         27.4095  -50.4492  -59.3970 C.3       8 UNK         0.0284 
     31 CB         28.5510  -51.4752  -59.2356 C.3       8 UNK        -0.1977 
     32 N          26.6516  -50.3167  -58.1420 N.am      8 UNK        -0.4342 
     33 C          27.0213  -49.6650  -57.0286 C.2       8 UNK         0.5039 
     34 O          28.0835  -49.0526  -56.9071 O.2       8 UNK        -0.5547 
     35 CA         26.0518  -49.7164  -55.8425 C.3       7 UNK         0.0281 
     36 CB         26.3418  -50.9469  -54.9687 C.3       7 UNK        -0.1963 
     37 N          26.2299  -48.5089  -55.0364 N.am      7 UNK        -0.4444 
     38 C          25.2416  -47.7026  -54.6273 C.2       7 UNK         0.5104 
     39 O          24.0490  -47.9449  -54.8207 O.2       7 UNK        -0.5100 
     40 CA         25.6373  -46.3866  -53.9203 C.3       6 UNK         0.0396 
     41 CB         24.5412  -45.8669  -52.9653 C.3       6 UNK        -0.1801 
     42 N          26.9442  -46.4273  -53.2532 N.am      6 UNK        -0.4747 
     43 C          27.2869  -47.1767  -52.1943 C.2       6 UNK         0.5012 
     44 O          26.5275  -47.9590  -51.6185 O.2       6 UNK        -0.5003 
     45 CA         28.7349  -47.0162  -51.6856 C.3       5 UNK         0.0782 
     46 C46        28.7381  -46.3609  -50.2812 C.3       11 UNK        -0.0868 
     47 S47        30.4093  -45.9003  -49.7118 S.3       11 UNK        -0.2515 
     48 C48        30.3896  -44.0802  -49.8315 C.3       11 UNK         0.0199 
     49 N          29.4631  -48.2899  -51.7093 N.am      5 UNK        -0.4607 
     50 C          29.6522  -49.0358  -52.8051 C.2       4 UNK         0.5031 
     51 O          29.1863  -48.7539  -53.9111 O.2       4 UNK        -0.5119 
     52 CA         30.4977  -50.3125  -52.6377 C.3       4 UNK         0.0263 
     53 CB         29.6228  -51.4917  -52.1821 C.3       4 UNK        -0.1967 
     54 N          31.1620  -50.6598  -53.8974 N.am      4 UNK        -0.4237 
     55 C          32.1585  -49.9386  -54.4263 C.2       3 UNK         0.4908 
     56 O          32.7598  -49.0569  -53.8072 O.2       3 UNK        -0.5102 
     57 CA         32.5248  -50.2166  -55.8925 C.3       3 UNK         0.0241 
     58 CB         31.2850  -50.0779  -56.8008 C.3       3 UNK        -0.1971 
     59 N          33.5488  -49.2436  -56.2612 N.am      3 UNK        -0.4139 
     60 C          34.2274  -49.1282  -57.4058 C.2       2 UNK         0.5016 
     61 O          34.1055  -49.9083  -58.3514 O.2       2 UNK        -0.5319 
     62 CA         35.2426  -47.9675  -57.5138 C.3       2 UNK         0.0286 
     63 CB         35.0528  -47.1636  -58.8180 C.3       2 UNK        -0.1963 
     64 N          35.3033  -47.0693  -56.3443 N.am      2 UNK        -0.4790 
     65 C          34.3582  -46.2265  -55.8970 C.2       1 UNK         0.5024 
     66 O          33.2502  -46.0901  -56.4171 O.2       1 UNK        -0.4888 
     67 H67        32.2363  -46.9295  -51.8458 H         1 UNK         0.0892 
     68 H68        33.4166  -48.0693  -51.2033 H         1 UNK         0.0892 
     69 H69        33.2945  -46.4456  -50.5144 H         1 UNK         0.0892 
     70 H70        32.8554  -45.9499  -53.7543 H         1 UNK         0.3107 
     71 H71        35.7480  -45.6063  -54.3905 H         1 UNK         0.0773 
     72 H72        33.4740  -43.6911  -55.1139 H         1 UNK         0.0680 
     73 H73        35.1350  -43.5526  -55.6303 H         1 UNK         0.0680 
     74 H74        33.4462  -41.2357  -54.0417 H         1 UNK         0.0650 
     75 H75        33.7527  -41.1354  -52.3298 H         1 UNK         0.0650 
     76 H76        32.7119  -42.9858  -50.7894 H         1 UNK         0.1397 
     77 H77        28.7157  -43.9982  -51.9880 H         1 UNK         0.1363 
     78 H78        31.4054  -42.2168  -54.8000 H         1 UNK         0.1355 
     79 H79        28.9824  -42.3395  -55.2519 H         1 UNK         0.0707 
     80 H80        27.8920  -43.1217  -54.1311 H         1 UNK         0.0707 
     81 H81        26.9864  -43.7600  -56.4175 H         1 UNK         0.1034 
     82 H82        28.2493  -43.7349  -57.6174 H         1 UNK         0.1034 
     83 H83        26.8197  -46.2679  -56.6816 H         1 UNK         0.0482 
     84 H84        26.2726  -46.8423  -59.7327 H         1 UNK         0.3460 
     85 H85        24.8031  -45.9229  -59.9483 H         1 UNK         0.3460 
     86 H86        28.2716  -47.4380  -57.7714 H         1 UNK         0.2989 
     87 H87        29.6624  -47.2173  -60.9859 H         1 UNK         0.0559 
     88 H88        31.7382  -48.1233  -59.8923 H         1 UNK         0.0848 
     89 H89        31.2362  -47.4143  -58.3563 H         1 UNK         0.0848 
     90 H90        31.6193  -46.3801  -59.7189 H         1 UNK         0.0848 
     91 H91        29.6433  -49.2837  -59.0078 H         1 UNK         0.3144 
     92 H92        26.7154  -50.8544  -60.1352 H         1 UNK         0.0727 
     93 H93        29.1471  -51.5514  -60.1462 H         1 UNK         0.0790 
     94 H94        28.1532  -52.4690  -59.0302 H         1 UNK         0.0790 
     95 H95        29.2226  -51.2207  -58.4186 H         1 UNK         0.0790 
     96 H96        25.7445  -50.7631  -58.1451 H         1 UNK         0.3215 
     97 H97        25.0323  -49.7773  -56.2291 H         1 UNK         0.0863 
     98 H98        27.3682  -50.9375  -54.6009 H         1 UNK         0.0808 
     99 H99        26.2028  -51.8714  -55.5303 H         1 UNK         0.0808 
    100 H100       25.6773  -50.9856  -54.1054 H         1 UNK         0.0808 
    101 H101       27.1991  -48.2543  -54.8683 H         1 UNK         0.3118 
    102 H102       25.7371  -45.6438  -54.7120 H         1 UNK         0.0546 
    103 H103       24.3082  -46.5885  -52.1820 H         1 UNK         0.0828 
    104 H104       23.6147  -45.6677  -53.5051 H         1 UNK         0.0828 
    105 H105       24.8396  -44.9345  -52.4864 H         1 UNK         0.0828 
    106 H106       27.6616  -45.8645  -53.6929 H         1 UNK         0.3005 
    107 H107       29.2652  -46.3556  -52.3741 H         1 UNK         0.1257 
    108 H108       28.3101  -47.0450  -49.5458 H         1 UNK         0.0775 
    109 H109       28.0995  -45.4761  -50.2614 H         1 UNK         0.0775 
    110 H110       29.4294  -43.6902  -49.4909 H         1 UNK         0.0840 
    111 H111       31.1305  -43.6871  -49.1337 H         1 UNK         0.0840 
    112 H112       29.8554  -48.5907  -50.8295 H         1 UNK         0.2987 
    113 H113       31.2627  -50.1290  -51.8798 H         1 UNK         0.0785 
    114 H114       29.1221  -51.2667  -51.2395 H         1 UNK         0.0798 
    115 H115       30.2203  -52.3897  -52.0236 H         1 UNK         0.0798 
    116 H116       28.8489  -51.7288  -52.9121 H         1 UNK         0.0798 
    117 H117       30.6935  -51.3371  -54.4802 H         1 UNK         0.3079 
    118 H118       32.9430  -51.2216  -55.9699 H         1 UNK         0.0794 
    119 H119       31.5290  -50.2289  -57.8516 H         1 UNK         0.0786 
    120 H120       30.8269  -49.0933  -56.6966 H         1 UNK         0.0786 
    121 H121       30.5232  -50.8132  -56.5428 H         1 UNK         0.0786 
    122 H122       33.7293  -48.5762  -55.5198 H         1 UNK         0.3032 
    123 H123       36.2210  -48.4478  -57.5699 H         1 UNK         0.1094 
    124 H124       35.1426  -47.8087  -59.6929 H         1 UNK         0.0794 
    125 H125       34.0715  -46.6919  -58.8666 H         1 UNK         0.0794 
    126 H126       35.8063  -46.3823  -58.9161 H         1 UNK         0.0794 
    127 H127       36.1631  -47.1268  -55.8141 H         1 UNK         0.3016 
@<TRIPOS>BOND
     1    1    2 1    
     2    1   67 1    
     3    1   68 1    
     4    1   69 1    
     5    2    3 2    
     6    2    4 am   BACKBONE|DICT|INTERRES
     7    4    5 1    
     8    4   70 1    
     9    5    6 1    
    10    5   65 1    
    11    5   71 1    
    12    6    7 1    
    13    6   72 1    
    14    6   73 1    
    15    7    8 1    
    16    8    9 1    
    17    8   74 1    
    18    8   75 1    
    19    9   10 ar   
    20    9   14 ar   
    21   10   11 ar   
    22   10   76 1    
    23   11   12 ar   
    24   11   48 1    
    25   12   13 ar   
    26   12   77 1    
    27   13   14 ar   
    28   13   15 1    
    29   14   78 1    
    30   15   16 1    
    31   15   79 1    
    32   15   80 1    
    33   16   17 1    
    34   17   18 1    
    35   17   81 1    
    36   17   82 1    
    37   18   19 1    
    38   18   22 1    
    39   18   83 1    
    40   19   20 am   BACKBONE|DICT|INTERRES
    41   19   21 2    
    42   20   84 1    
    43   20   85 1    
    44   22   23 am   BACKBONE|DICT|INTERRES
    45   22   86 1    
    46   23   24 2    
    47   23   25 1    
    48   25   26 1    
    49   25   27 1    
    50   25   87 1    
    51   26   88 1    
    52   26   89 1    
    53   26   90 1    
    54   27   28 am   BACKBONE|DICT|INTERRES
    55   27   91 1    
    56   28   29 2    
    57   28   30 1    
    58   30   31 1    
    59   30   32 1    
    60   30   92 1    
    61   31   93 1    
    62   31   94 1    
    63   31   95 1    
    64   32   33 am   BACKBONE|DICT|INTERRES
    65   32   96 1    
    66   33   34 2    
    67   33   35 1    
    68   35   36 1    
    69   35   37 1    
    70   35   97 1    
    71   36   98 1    
    72   36   99 1    
    73   36  100 1    
    74   37   38 am   BACKBONE|DICT|INTERRES
    75   37  101 1    
    76   38   39 2    
    77   38   40 1    
    78   40   41 1    
    79   40   42 1    
    80   40  102 1    
    81   41  103 1    
    82   41  104 1    
    83   41  105 1    
    84   42   43 am   BACKBONE|DICT|INTERRES
    85   42  106 1    
    86   43   44 2    
    87   43   45 1    
    88   45   46 1    
    89   45   49 1    
    90   45  107 1    
    91   46   47 1    
    92   46  108 1    
    93   46  109 1    
    94   47   48 1    
    95   48  110 1    
    96   48  111 1    
    97   49   50 am   BACKBONE|DICT|INTERRES
    98   49  112 1    
    99   50   51 2    
   100   50   52 1    
   101   52   53 1    
   102   52   54 1    
   103   52  113 1    
   104   53  114 1    
   105   53  115 1    
   106   53  116 1    
   107   54   55 am   BACKBONE|DICT|INTERRES
   108   54  117 1    
   109   55   56 2    
   110   55   57 1    
   111   57   58 1    
   112   57   59 1    
   113   57  118 1    
   114   58  119 1    
   115   58  120 1    
   116   58  121 1    
   117   59   60 am   BACKBONE|DICT|INTERRES
   118   59  122 1    
   119   60   61 2    
   120   60   62 1    
   121   62   63 1    
   122   62   64 1    
   123   62  123 1    
   124   63  124 1    
   125   63  125 1    
   126   63  126 1    
   127   64   65 am   BACKBONE|DICT|INTERRES
   128   64  127 1    
   129   65   66 2    
@<TRIPOS>SUBSTRUCTURE
     1 UNK         1 GROUP             0       ****    0 ROOT    
