@<TRIPOS>MOLECULE
3R134
127   129    1
SMALL
USER_CHARGES


@<TRIPOS>ATOM
      1 CA         38.9730  -42.3820  -51.9824 C.3       0 UNK        -0.1968 
      2 C          38.0057  -43.5384  -52.1871 C.2       0 UNK         0.4852 
      3 O          38.3730  -44.5427  -52.8003 O.2       0 UNK        -0.5359 
      4 N          36.7723  -43.4093  -51.6794 N.am      1 UNK        -0.4300 
      5 CA         35.7238  -44.4301  -51.7448 C.3       1 UNK         0.0863 
      6 C6         34.3105  -43.7948  -51.6501 C.3       11 UNK        -0.0953 
      7 S7         33.0197  -44.8646  -52.3744 S.3       11 UNK        -0.2369 
      8 C8         32.6571  -43.9496  -53.9026 C.3       11 UNK         0.0226 
      9 C9         31.5880  -44.6262  -54.7485 C.ar      11 UNK        -0.0699 
     10 C10        31.9320  -45.2578  -55.9481 C.ar      11 UNK        -0.0804 
     11 C11        30.9418  -45.7895  -56.7801 C.ar      11 UNK        -0.0871 
     12 C12        29.6015  -45.6996  -56.3961 C.ar      11 UNK        -0.1008 
     13 C13        29.2466  -45.0992  -55.1843 C.ar      11 UNK        -0.0735 
     14 C14        30.2445  -44.5624  -54.3653 C.ar      11 UNK        -0.0945 
     15 C15        27.7809  -44.9750  -54.7961 C.3       11 UNK         0.0169 
     16 S16        26.9430  -46.5906  -54.7719 S.3       11 UNK        -0.2669 
     17 C17        25.1976  -46.0861  -54.9393 C.3       11 UNK        -0.0850 
     18 CA         24.6667  -46.3367  -56.3791 C.3       10 UNK         0.0855 
     19 C          23.1134  -46.2522  -56.4972 C.2       10 UNK         0.5543 
     20 N          22.5571  -45.8871  -57.6475 N.am      10 UNK        -0.7343 
     21 O          22.3967  -46.5556  -55.5467 O.2       10 UNK        -0.5027 
     22 N          25.3993  -45.5761  -57.4058 N.am      10 UNK        -0.4495 
     23 C          25.3563  -44.2493  -57.5995 C.2       10 UNK         0.4903 
     24 O          24.7859  -43.4604  -56.8460 O.2       10 UNK        -0.4860 
     25 CA         26.0439  -43.7037  -58.8677 C.3       9 UNK         0.0227 
     26 CB         27.4327  -43.1406  -58.5243 C.3       9 UNK        -0.1964 
     27 N          26.1763  -44.6954  -59.9410 N.am      9 UNK        -0.4231 
     28 C          25.1617  -45.3346  -60.5416 C.2       9 UNK         0.5014 
     29 O          23.9725  -45.0932  -60.3257 O.2       9 UNK        -0.5270 
     30 CA         25.5280  -46.5011  -61.4778 C.3       8 UNK         0.0284 
     31 CB         26.9448  -46.3961  -62.0891 C.3       8 UNK        -0.1977 
     32 N          25.3433  -47.7924  -60.8002 N.am      8 UNK        -0.4342 
     33 C          25.9372  -48.1954  -59.6676 C.2       8 UNK         0.5039 
     34 O          26.7761  -47.5293  -59.0487 O.2       8 UNK        -0.5547 
     35 CA         25.5184  -49.5638  -59.1179 C.3       7 UNK         0.0281 
     36 CB         26.1096  -50.7096  -59.9599 C.3       7 UNK        -0.1963 
     37 N          26.0188  -49.6420  -57.7526 N.am      7 UNK        -0.4444 
     38 C          25.6080  -50.4526  -56.7739 C.2       7 UNK         0.5104 
     39 O          24.6974  -51.2724  -56.9023 O.2       7 UNK        -0.5100 
     40 CA         26.3426  -50.3057  -55.4226 C.3       6 UNK         0.0396 
     41 CB         26.2788  -51.5862  -54.5644 C.3       6 UNK        -0.1801 
     42 N          27.7301  -49.8346  -55.5638 N.am      6 UNK        -0.4747 
     43 C          28.7289  -50.4477  -56.2225 C.2       6 UNK         0.5012 
     44 O          28.6231  -51.5496  -56.7621 O.2       6 UNK        -0.5003 
     45 CA         30.0689  -49.6929  -56.3276 C.3       5 UNK         0.0782 
     46 C46        30.1603  -48.9646  -57.6909 C.3       11 UNK        -0.0868 
     47 S47        31.7807  -48.1666  -57.9497 S.3       11 UNK        -0.2515 
     48 C48        31.3174  -46.4145  -58.1159 C.3       11 UNK         0.0199 
     49 N          30.3163  -48.7962  -55.1908 N.am      5 UNK        -0.4607 
     50 C          30.6086  -49.2238  -53.9575 C.2       4 UNK         0.5031 
     51 O          30.6154  -50.4129  -53.6286 O.2       4 UNK        -0.5119 
     52 CA         30.9393  -48.1469  -52.9132 C.3       4 UNK         0.0263 
     53 CB         29.6747  -47.6997  -52.1649 C.3       4 UNK        -0.1967 
     54 N          31.9084  -48.6570  -51.9429 N.am      4 UNK        -0.4237 
     55 C          33.2195  -48.7657  -52.1817 C.2       3 UNK         0.4908 
     56 O          33.7722  -48.3761  -53.2143 O.2       3 UNK        -0.5102 
     57 CA         34.0642  -49.4243  -51.0875 C.3       3 UNK         0.0241 
     58 CB         34.3059  -50.9149  -51.3856 C.3       3 UNK        -0.1971 
     59 N          35.3270  -48.7025  -51.0383 N.am      3 UNK        -0.4139 
     60 C          36.1336  -48.5844  -49.9795 C.2       2 UNK         0.5016 
     61 O          35.9880  -49.2061  -48.9261 O.2       2 UNK        -0.5319 
     62 CA         37.2794  -47.5637  -50.1104 C.3       2 UNK         0.0286 
     63 CB         38.5475  -48.2377  -50.6582 C.3       2 UNK        -0.1963 
     64 N          36.9306  -46.4175  -50.9604 N.am      2 UNK        -0.4790 
     65 C          35.9809  -45.5143  -50.6758 C.2       1 UNK         0.5024 
     66 O          35.3534  -45.5035  -49.6151 O.2       1 UNK        -0.4888 
     67 H67        38.5158  -41.5594  -51.4328 H         1 UNK         0.0892 
     68 H68        39.8465  -42.7185  -51.4248 H         1 UNK         0.0892 
     69 H69        39.3096  -42.0001  -52.9458 H         1 UNK         0.0892 
     70 H70        36.5380  -42.5760  -51.1583 H         1 UNK         0.3107 
     71 H71        35.7962  -44.9123  -52.7228 H         1 UNK         0.0773 
     72 H72        34.0386  -43.5499  -50.6218 H         1 UNK         0.0680 
     73 H73        34.2987  -42.8415  -52.1809 H         1 UNK         0.0680 
     74 H74        32.3246  -42.9423  -53.6472 H         1 UNK         0.0650 
     75 H75        33.5798  -43.8341  -54.4737 H         1 UNK         0.0650 
     76 H76        32.9690  -45.3089  -56.2514 H         1 UNK         0.1397 
     77 H77        28.8259  -46.0867  -57.0436 H         1 UNK         0.1363 
     78 H78        29.9779  -44.0703  -53.4398 H         1 UNK         0.1355 
     79 H79        27.2955  -44.3105  -55.5093 H         1 UNK         0.0707 
     80 H80        27.6717  -44.5098  -53.8154 H         1 UNK         0.0707 
     81 H81        25.0686  -45.0423  -54.6494 H         1 UNK         0.1034 
     82 H82        24.6291  -46.6698  -54.2132 H         1 UNK         0.1034 
     83 H83        24.8759  -47.3807  -56.6078 H         1 UNK         0.0482 
     84 H84        23.1260  -45.6303  -58.4451 H         1 UNK         0.3460 
     85 H85        21.5527  -45.8470  -57.7156 H         1 UNK         0.3460 
     86 H86        25.9233  -46.1419  -58.0685 H         1 UNK         0.2989 
     87 H87        25.4260  -42.8877  -59.2475 H         1 UNK         0.0559 
     88 H88        27.8906  -42.6570  -59.3873 H         1 UNK         0.0848 
     89 H89        28.1109  -43.9201  -58.1768 H         1 UNK         0.0848 
     90 H90        27.3667  -42.3920  -57.7334 H         1 UNK         0.0848 
     91 H91        27.1115  -45.0156  -60.1482 H         1 UNK         0.3144 
     92 H92        24.8121  -46.4705  -62.3008 H         1 UNK         0.0727 
     93 H93        27.0996  -47.1706  -62.8403 H         1 UNK         0.0790 
     94 H94        27.7351  -46.5046  -61.3457 H         1 UNK         0.0790 
     95 H95        27.0874  -45.4363  -62.5877 H         1 UNK         0.0790 
     96 H96        24.6470  -48.3984  -61.2129 H         1 UNK         0.3215 
     97 H97        24.4281  -49.6233  -59.1074 H         1 UNK         0.0863 
     98 H98        25.8248  -51.6835  -59.5615 H         1 UNK         0.0808 
     99 H99        27.1995  -50.6669  -59.9850 H         1 UNK         0.0808 
    100 H100       25.7558  -50.6682  -60.9906 H         1 UNK         0.0808 
    101 H101       26.7364  -48.9536  -57.5572 H         1 UNK         0.3118 
    102 H102       25.8127  -49.5224  -54.8789 H         1 UNK         0.0546 
    103 H103       26.7225  -52.4405  -55.0762 H         1 UNK         0.0828 
    104 H104       25.2466  -51.8494  -54.3309 H         1 UNK         0.0828 
    105 H105       26.8006  -51.4545  -53.6165 H         1 UNK         0.0828 
    106 H106       27.9220  -48.9246  -55.1642 H         1 UNK         0.3005 
    107 H107       30.8500  -50.4571  -56.3107 H         1 UNK         0.1257 
    108 H108       30.0186  -49.6745  -58.5085 H         1 UNK         0.0775 
    109 H109       29.3581  -48.2330  -57.7958 H         1 UNK         0.0775 
    110 H110       32.1593  -45.8711  -58.5477 H         1 UNK         0.0840 
    111 H111       30.5000  -46.3161  -58.8324 H         1 UNK         0.0840 
    112 H112       30.3466  -47.8063  -55.3975 H         1 UNK         0.2987 
    113 H113       31.3695  -47.2813  -53.4216 H         1 UNK         0.0785 
    114 H114       29.1797  -48.5341  -51.6665 H         1 UNK         0.0798 
    115 H115       29.9059  -46.9442  -51.4138 H         1 UNK         0.0798 
    116 H116       28.9559  -47.2557  -52.8510 H         1 UNK         0.0798 
    117 H117       31.5299  -49.0459  -51.0915 H         1 UNK         0.3079 
    118 H118       33.5534  -49.3188  -50.1277 H         1 UNK         0.0794 
    119 H119       33.3620  -51.4580  -51.4480 H         1 UNK         0.0786 
    120 H120       34.9009  -51.3856  -50.6028 H         1 UNK         0.0786 
    121 H121       34.8275  -51.0553  -52.3333 H         1 UNK         0.0786 
    122 H122       35.5107  -48.1402  -51.8602 H         1 UNK         0.3032 
    123 H123       37.4949  -47.1861  -49.1082 H         1 UNK         0.1094 
    124 H124       39.3873  -47.5429  -50.6822 H         1 UNK         0.0794 
    125 H125       38.8431  -49.0800  -50.0309 H         1 UNK         0.0794 
    126 H126       38.3984  -48.6201  -51.6688 H         1 UNK         0.0794 
    127 H127       37.4646  -46.2889  -51.8128 H         1 UNK         0.3016 
@<TRIPOS>BOND
     1    1    2 1    
     2    1   67 1    
     3    1   68 1    
     4    1   69 1    
     5    2    3 2    
     6    2    4 am   BACKBONE|DICT|INTERRES
     7    4    5 1    
     8    4   70 1    
     9    5    6 1    
    10    5   65 1    
    11    5   71 1    
    12    6    7 1    
    13    6   72 1    
    14    6   73 1    
    15    7    8 1    
    16    8    9 1    
    17    8   74 1    
    18    8   75 1    
    19    9   10 ar   
    20    9   14 ar   
    21   10   11 ar   
    22   10   76 1    
    23   11   12 ar   
    24   11   48 1    
    25   12   13 ar   
    26   12   77 1    
    27   13   14 ar   
    28   13   15 1    
    29   14   78 1    
    30   15   16 1    
    31   15   79 1    
    32   15   80 1    
    33   16   17 1    
    34   17   18 1    
    35   17   81 1    
    36   17   82 1    
    37   18   19 1    
    38   18   22 1    
    39   18   83 1    
    40   19   20 am   BACKBONE|DICT|INTERRES
    41   19   21 2    
    42   20   84 1    
    43   20   85 1    
    44   22   23 am   BACKBONE|DICT|INTERRES
    45   22   86 1    
    46   23   24 2    
    47   23   25 1    
    48   25   26 1    
    49   25   27 1    
    50   25   87 1    
    51   26   88 1    
    52   26   89 1    
    53   26   90 1    
    54   27   28 am   BACKBONE|DICT|INTERRES
    55   27   91 1    
    56   28   29 2    
    57   28   30 1    
    58   30   31 1    
    59   30   32 1    
    60   30   92 1    
    61   31   93 1    
    62   31   94 1    
    63   31   95 1    
    64   32   33 am   BACKBONE|DICT|INTERRES
    65   32   96 1    
    66   33   34 2    
    67   33   35 1    
    68   35   36 1    
    69   35   37 1    
    70   35   97 1    
    71   36   98 1    
    72   36   99 1    
    73   36  100 1    
    74   37   38 am   BACKBONE|DICT|INTERRES
    75   37  101 1    
    76   38   39 2    
    77   38   40 1    
    78   40   41 1    
    79   40   42 1    
    80   40  102 1    
    81   41  103 1    
    82   41  104 1    
    83   41  105 1    
    84   42   43 am   BACKBONE|DICT|INTERRES
    85   42  106 1    
    86   43   44 2    
    87   43   45 1    
    88   45   46 1    
    89   45   49 1    
    90   45  107 1    
    91   46   47 1    
    92   46  108 1    
    93   46  109 1    
    94   47   48 1    
    95   48  110 1    
    96   48  111 1    
    97   49   50 am   BACKBONE|DICT|INTERRES
    98   49  112 1    
    99   50   51 2    
   100   50   52 1    
   101   52   53 1    
   102   52   54 1    
   103   52  113 1    
   104   53  114 1    
   105   53  115 1    
   106   53  116 1    
   107   54   55 am   BACKBONE|DICT|INTERRES
   108   54  117 1    
   109   55   56 2    
   110   55   57 1    
   111   57   58 1    
   112   57   59 1    
   113   57  118 1    
   114   58  119 1    
   115   58  120 1    
   116   58  121 1    
   117   59   60 am   BACKBONE|DICT|INTERRES
   118   59  122 1    
   119   60   61 2    
   120   60   62 1    
   121   62   63 1    
   122   62   64 1    
   123   62  123 1    
   124   63  124 1    
   125   63  125 1    
   126   63  126 1    
   127   64   65 am   BACKBONE|DICT|INTERRES
   128   64  127 1    
   129   65   66 2    
@<TRIPOS>SUBSTRUCTURE
     1 UNK         1 GROUP             0       ****    0 ROOT    
