@<TRIPOS>MOLECULE
3R134
127   129    1
SMALL
USER_CHARGES


@<TRIPOS>ATOM
      1 CA         31.2979  -42.9275  -50.5802 C.3       0 UNK        -0.1968 
      2 C          32.6338  -43.6076  -50.3171 C.2       0 UNK         0.4852 
      3 O          33.5865  -42.9466  -49.9016 O.2       0 UNK        -0.5359 
      4 N          32.7083  -44.9192  -50.5583 N.am      1 UNK        -0.4300 
      5 CA         33.8852  -45.7640  -50.3677 C.3       1 UNK         0.0863 
      6 C6         34.9827  -45.5504  -51.4502 C.3       11 UNK        -0.0953 
      7 S7         34.4124  -45.8324  -53.1624 S.3       11 UNK        -0.2369 
      8 C8         34.2699  -44.1308  -53.7847 C.3       11 UNK         0.0226 
      9 C9         33.2232  -44.0128  -54.8837 C.ar      11 UNK        -0.0699 
     10 C10        33.5618  -44.2570  -56.2189 C.ar      11 UNK        -0.0804 
     11 C11        32.6185  -44.0675  -57.2347 C.ar      11 UNK        -0.0871 
     12 C12        31.3343  -43.6274  -56.9055 C.ar      11 UNK        -0.1008 
     13 C13        30.9708  -43.4139  -55.5734 C.ar      11 UNK        -0.0735 
     14 C14        31.9209  -43.6129  -54.5668 C.ar      11 UNK        -0.0945 
     15 C15        29.5704  -42.9244  -55.2230 C.3       11 UNK         0.0169 
     16 S16        28.2951  -44.1859  -55.5425 S.3       11 UNK        -0.2669 
     17 C17        27.9315  -43.9351  -57.3170 C.3       11 UNK        -0.0850 
     18 CA         26.4163  -44.0085  -57.6263 C.3       10 UNK         0.0855 
     19 C          26.1389  -43.6764  -59.1170 C.2       10 UNK         0.5543 
     20 N          25.9355  -42.4065  -59.4391 N.am      10 UNK        -0.7343 
     21 O          26.1506  -44.5462  -59.9856 O.2       10 UNK        -0.5027 
     22 N          25.8567  -45.3069  -57.2342 N.am      10 UNK        -0.4495 
     23 C          24.5532  -45.5526  -57.0490 C.2       10 UNK         0.4903 
     24 O          23.6709  -44.7052  -57.1927 O.2       10 UNK        -0.4860 
     25 CA         24.1520  -46.9728  -56.6086 C.3       9 UNK         0.0227 
     26 CB         23.5089  -47.7374  -57.7753 C.3       9 UNK        -0.1964 
     27 N          25.2788  -47.7370  -56.0594 N.am      9 UNK        -0.4231 
     28 C          25.7770  -47.5430  -54.8276 C.2       9 UNK         0.5014 
     29 O          25.2624  -46.7771  -54.0103 O.2       9 UNK        -0.5270 
     30 CA         27.0786  -48.2734  -54.4386 C.3       8 UNK         0.0284 
     31 CB         27.0894  -48.7152  -52.9593 C.3       8 UNK        -0.1977 
     32 N          27.4607  -49.3794  -55.3217 N.am      8 UNK        -0.4342 
     33 C          26.8166  -50.5374  -55.5211 C.2       8 UNK         0.5039 
     34 O          25.7792  -50.8625  -54.9406 O.2       8 UNK        -0.5547 
     35 CA         27.4340  -51.4599  -56.5921 C.3       7 UNK         0.0281 
     36 CB         26.5635  -52.6975  -56.8994 C.3       7 UNK        -0.1963 
     37 N          27.7584  -50.7306  -57.8275 N.am      7 UNK        -0.4444 
     38 C          26.9113  -50.0167  -58.5871 C.2       7 UNK         0.5104 
     39 O          25.7038  -49.9325  -58.3691 O.2       7 UNK        -0.5100 
     40 CA         27.5349  -49.2351  -59.7620 C.3       6 UNK         0.0396 
     41 CB         26.5913  -48.1595  -60.3414 C.3       6 UNK        -0.1801 
     42 N          28.8392  -48.6506  -59.4247 N.am      6 UNK        -0.4747 
     43 C          29.0976  -47.7707  -58.4442 C.2       6 UNK         0.5012 
     44 O          28.2360  -47.2796  -57.7084 O.2       6 UNK        -0.5003 
     45 CA         30.5859  -47.4095  -58.2603 C.3       5 UNK         0.0782 
     46 C46        31.0282  -46.2927  -59.2366 C.3       11 UNK        -0.0868 
     47 S47        32.8379  -46.0353  -59.1939 S.3       11 UNK        -0.2515 
     48 C48        32.9950  -44.2909  -58.6928 C.3       11 UNK         0.0199 
     49 N          30.9332  -47.0931  -56.8735 N.am      5 UNK        -0.4607 
     50 C          30.8432  -47.9427  -55.8451 C.2       4 UNK         0.5031 
     51 O          30.2945  -49.0475  -55.9006 O.2       4 UNK        -0.5119 
     52 CA         31.5090  -47.4803  -54.5401 C.3       4 UNK         0.0263 
     53 CB         30.4956  -46.8516  -53.5746 C.3       4 UNK        -0.1967 
     54 N          32.2190  -48.5637  -53.8568 N.am      4 UNK        -0.4237 
     55 C          33.2651  -49.2369  -54.3581 C.2       3 UNK         0.4908 
     56 O          33.7754  -48.9999  -55.4547 O.2       3 UNK        -0.5102 
     57 CA         33.8559  -50.3321  -53.4572 C.3       3 UNK         0.0241 
     58 CB         35.1571  -50.9420  -54.0146 C.3       3 UNK        -0.1971 
     59 N          34.1111  -49.7806  -52.1275 N.am      3 UNK        -0.4139 
     60 C          33.7277  -50.3323  -50.9701 C.2       2 UNK         0.5016 
     61 O          33.1362  -51.4094  -50.8869 O.2       2 UNK        -0.5319 
     62 CA         34.0541  -49.5579  -49.6777 C.3       2 UNK         0.0286 
     63 CB         35.2559  -50.1965  -48.9616 C.3       2 UNK        -0.1963 
     64 N          34.3205  -48.1260  -49.8711 N.am      2 UNK        -0.4790 
     65 C          33.4096  -47.2252  -50.2648 C.2       1 UNK         0.5024 
     66 O          32.2425  -47.5154  -50.5450 O.2       1 UNK        -0.4888 
     67 H67        31.4291  -42.0987  -51.2754 H         1 UNK         0.0892 
     68 H68        30.5671  -43.6148  -51.0068 H         1 UNK         0.0892 
     69 H69        30.8896  -42.5312  -49.6509 H         1 UNK         0.0892 
     70 H70        31.8913  -45.4457  -50.8433 H         1 UNK         0.3107 
     71 H71        34.3130  -45.5142  -49.3944 H         1 UNK         0.0773 
     72 H72        35.3876  -44.5409  -51.3677 H         1 UNK         0.0680 
     73 H73        35.8335  -46.2083  -51.2673 H         1 UNK         0.0680 
     74 H74        34.0139  -43.4564  -52.9669 H         1 UNK         0.0650 
     75 H75        35.2430  -43.8040  -54.1538 H         1 UNK         0.0650 
     76 H76        34.5652  -44.5749  -56.4682 H         1 UNK         0.1397 
     77 H77        30.6179  -43.4439  -57.6917 H         1 UNK         0.1363 
     78 H78        31.6557  -43.4309  -53.5350 H         1 UNK         0.1355 
     79 H79        29.3474  -42.0089  -55.7722 H         1 UNK         0.0707 
     80 H80        29.5201  -42.6574  -54.1663 H         1 UNK         0.0707 
     81 H81        28.4768  -44.6820  -57.8938 H         1 UNK         0.1034 
     82 H82        28.3205  -42.9647  -57.6292 H         1 UNK         0.1034 
     83 H83        25.9202  -43.2472  -57.0202 H         1 UNK         0.0482 
     84 H84        25.9292  -41.6831  -58.7367 H         1 UNK         0.3460 
     85 H85        25.7691  -42.1676  -60.4042 H         1 UNK         0.3460 
     86 H86        26.5253  -46.0627  -57.1431 H         1 UNK         0.2989 
     87 H87        23.3953  -46.8714  -55.8278 H         1 UNK         0.0559 
     88 H88        23.2431  -48.7552  -57.4888 H         1 UNK         0.0848 
     89 H89        24.1715  -47.7923  -58.6381 H         1 UNK         0.0848 
     90 H90        22.5940  -47.2435  -58.1048 H         1 UNK         0.0848 
     91 H91        25.7322  -48.3993  -56.6773 H         1 UNK         0.3144 
     92 H92        27.8626  -47.5271  -54.5661 H         1 UNK         0.0727 
     93 H93        28.0154  -49.2298  -52.7033 H         1 UNK         0.0790 
     94 H94        26.2601  -49.3858  -52.7328 H         1 UNK         0.0790 
     95 H95        27.0027  -47.8559  -52.2933 H         1 UNK         0.0790 
     96 H96        28.3295  -49.2306  -55.8304 H         1 UNK         0.3215 
     97 H97        28.3805  -51.8146  -56.1805 H         1 UNK         0.0863 
     98 H98        27.0374  -53.3426  -57.6390 H         1 UNK         0.0808 
     99 H99        25.5799  -52.4181  -57.2785 H         1 UNK         0.0808 
    100 H100       26.4063  -53.2958  -56.0011 H         1 UNK         0.0808 
    101 H101       28.7369  -50.7110  -58.0793 H         1 UNK         0.3118 
    102 H102       27.7177  -49.9690  -60.5482 H         1 UNK         0.0546 
    103 H103       26.3434  -47.3955  -59.6042 H         1 UNK         0.0828 
    104 H104       25.6538  -48.6003  -60.6822 H         1 UNK         0.0828 
    105 H105       27.0409  -47.6575  -61.1978 H         1 UNK         0.0828 
    106 H106       29.6140  -48.9899  -59.9792 H         1 UNK         0.3005 
    107 H107       31.1581  -48.3073  -58.5062 H         1 UNK         0.1257 
    108 H108       30.7651  -46.5551  -60.2631 H         1 UNK         0.0775 
    109 H109       30.5054  -45.3604  -59.0256 H         1 UNK         0.0775 
    110 H110       34.0268  -43.9744  -58.8532 H         1 UNK         0.0840 
    111 H111       32.3863  -43.6671  -59.3495 H         1 UNK         0.0840 
    112 H112       31.3748  -46.1953  -56.7300 H         1 UNK         0.2987 
    113 H113       32.2457  -46.7203  -54.8014 H         1 UNK         0.0785 
    114 H114       31.0013  -46.3614  -52.7437 H         1 UNK         0.0798 
    115 H115       29.8162  -47.5958  -53.1612 H         1 UNK         0.0798 
    116 H116       29.8953  -46.0927  -54.0744 H         1 UNK         0.0798 
    117 H117       31.8778  -48.8171  -52.9406 H         1 UNK         0.3079 
    118 H118       33.1048  -51.1232  -53.4045 H         1 UNK         0.0794 
    119 H119       34.9932  -51.3829  -54.9987 H         1 UNK         0.0786 
    120 H120       35.5324  -51.7328  -53.3648 H         1 UNK         0.0786 
    121 H121       35.9419  -50.1916  -54.1169 H         1 UNK         0.0786 
    122 H122       34.5641  -48.8775  -52.0994 H         1 UNK         0.3032 
    123 H123       33.1809  -49.6494  -49.0274 H         1 UNK         0.1094 
    124 H124       35.0798  -51.2564  -48.7713 H         1 UNK         0.0794 
    125 H125       36.1675  -50.1200  -49.5556 H         1 UNK         0.0794 
    126 H126       35.4411  -49.7244  -47.9965 H         1 UNK         0.0794 
    127 H127       35.2569  -47.8110  -49.6583 H         1 UNK         0.3016 
@<TRIPOS>BOND
     1    1    2 1    
     2    1   67 1    
     3    1   68 1    
     4    1   69 1    
     5    2    3 2    
     6    2    4 am   BACKBONE|DICT|INTERRES
     7    4    5 1    
     8    4   70 1    
     9    5    6 1    
    10    5   65 1    
    11    5   71 1    
    12    6    7 1    
    13    6   72 1    
    14    6   73 1    
    15    7    8 1    
    16    8    9 1    
    17    8   74 1    
    18    8   75 1    
    19    9   10 ar   
    20    9   14 ar   
    21   10   11 ar   
    22   10   76 1    
    23   11   12 ar   
    24   11   48 1    
    25   12   13 ar   
    26   12   77 1    
    27   13   14 ar   
    28   13   15 1    
    29   14   78 1    
    30   15   16 1    
    31   15   79 1    
    32   15   80 1    
    33   16   17 1    
    34   17   18 1    
    35   17   81 1    
    36   17   82 1    
    37   18   19 1    
    38   18   22 1    
    39   18   83 1    
    40   19   20 am   BACKBONE|DICT|INTERRES
    41   19   21 2    
    42   20   84 1    
    43   20   85 1    
    44   22   23 am   BACKBONE|DICT|INTERRES
    45   22   86 1    
    46   23   24 2    
    47   23   25 1    
    48   25   26 1    
    49   25   27 1    
    50   25   87 1    
    51   26   88 1    
    52   26   89 1    
    53   26   90 1    
    54   27   28 am   BACKBONE|DICT|INTERRES
    55   27   91 1    
    56   28   29 2    
    57   28   30 1    
    58   30   31 1    
    59   30   32 1    
    60   30   92 1    
    61   31   93 1    
    62   31   94 1    
    63   31   95 1    
    64   32   33 am   BACKBONE|DICT|INTERRES
    65   32   96 1    
    66   33   34 2    
    67   33   35 1    
    68   35   36 1    
    69   35   37 1    
    70   35   97 1    
    71   36   98 1    
    72   36   99 1    
    73   36  100 1    
    74   37   38 am   BACKBONE|DICT|INTERRES
    75   37  101 1    
    76   38   39 2    
    77   38   40 1    
    78   40   41 1    
    79   40   42 1    
    80   40  102 1    
    81   41  103 1    
    82   41  104 1    
    83   41  105 1    
    84   42   43 am   BACKBONE|DICT|INTERRES
    85   42  106 1    
    86   43   44 2    
    87   43   45 1    
    88   45   46 1    
    89   45   49 1    
    90   45  107 1    
    91   46   47 1    
    92   46  108 1    
    93   46  109 1    
    94   47   48 1    
    95   48  110 1    
    96   48  111 1    
    97   49   50 am   BACKBONE|DICT|INTERRES
    98   49  112 1    
    99   50   51 2    
   100   50   52 1    
   101   52   53 1    
   102   52   54 1    
   103   52  113 1    
   104   53  114 1    
   105   53  115 1    
   106   53  116 1    
   107   54   55 am   BACKBONE|DICT|INTERRES
   108   54  117 1    
   109   55   56 2    
   110   55   57 1    
   111   57   58 1    
   112   57   59 1    
   113   57  118 1    
   114   58  119 1    
   115   58  120 1    
   116   58  121 1    
   117   59   60 am   BACKBONE|DICT|INTERRES
   118   59  122 1    
   119   60   61 2    
   120   60   62 1    
   121   62   63 1    
   122   62   64 1    
   123   62  123 1    
   124   63  124 1    
   125   63  125 1    
   126   63  126 1    
   127   64   65 am   BACKBONE|DICT|INTERRES
   128   64  127 1    
   129   65   66 2    
@<TRIPOS>SUBSTRUCTURE
     1 UNK         1 GROUP             0       ****    0 ROOT    
