@<TRIPOS>MOLECULE
3R134
127   129    1
SMALL
USER_CHARGES


@<TRIPOS>ATOM
      1 CA         37.1802  -47.6620  -54.8293 C.3       0 UNK        -0.1968 
      2 C          35.7684  -47.4318  -54.3147 C.2       0 UNK         0.4852 
      3 O          34.9186  -48.3137  -54.4542 O.2       0 UNK        -0.5359 
      4 N          35.5154  -46.2622  -53.7072 N.am      1 UNK        -0.4300 
      5 CA         34.2139  -45.8132  -53.1891 C.3       1 UNK         0.0863 
      6 C6         34.3020  -44.4102  -52.5410 C.3       11 UNK        -0.0953 
      7 S7         34.8415  -43.0435  -53.6339 S.3       11 UNK        -0.2369 
      8 C8         34.0873  -43.3831  -55.2697 C.3       11 UNK         0.0226 
      9 C9         32.5569  -43.4432  -55.3285 C.ar      11 UNK        -0.0699 
     10 C10        31.7322  -43.0434  -54.2682 C.ar      11 UNK        -0.0804 
     11 C11        30.3426  -43.1737  -54.3494 C.ar      11 UNK        -0.0871 
     12 C12        29.7697  -43.6659  -55.5244 C.ar      11 UNK        -0.1008 
     13 C13        30.5727  -44.0468  -56.6024 C.ar      11 UNK        -0.0735 
     14 C14        31.9614  -43.9297  -56.4971 C.ar      11 UNK        -0.0945 
     15 C15        29.9475  -44.6584  -57.8478 C.3       11 UNK         0.0169 
     16 S16        29.4908  -43.4403  -59.1274 S.3       11 UNK        -0.2669 
     17 C17        28.1963  -42.4037  -58.3488 C.3       11 UNK        -0.0850 
     18 CA         26.7589  -42.9938  -58.3778 C.3       10 UNK         0.0855 
     19 C          26.1546  -43.0692  -59.8120 C.2       10 UNK         0.5543 
     20 N          25.6525  -44.2098  -60.2727 N.am      10 UNK        -0.7343 
     21 O          26.1223  -42.0626  -60.5157 O.2       10 UNK        -0.5027 
     22 N          26.6866  -44.2472  -57.6187 N.am      10 UNK        -0.4495 
     23 C          25.6274  -44.6952  -56.9379 C.2       10 UNK         0.4903 
     24 O          24.5784  -44.0634  -56.8053 O.2       10 UNK        -0.4860 
     25 CA         25.7863  -46.0884  -56.2946 C.3       9 UNK         0.0227 
     26 CB         24.4361  -46.7345  -55.9222 C.3       9 UNK        -0.1964 
     27 N          26.6002  -47.0275  -57.0833 N.am      9 UNK        -0.4231 
     28 C          26.3813  -47.4160  -58.3502 C.2       9 UNK         0.5014 
     29 O          25.4920  -46.9557  -59.0670 O.2       9 UNK        -0.5270 
     30 CA         27.3143  -48.4907  -58.9243 C.3       8 UNK         0.0284 
     31 CB         28.5344  -47.8443  -59.6019 C.3       8 UNK        -0.1977 
     32 N          27.7667  -49.4302  -57.8940 N.am      8 UNK        -0.4342 
     33 C          27.2506  -50.6507  -57.7022 C.2       8 UNK         0.5039 
     34 O          26.3227  -51.1169  -58.3653 O.2       8 UNK        -0.5547 
     35 CA         27.8928  -51.5152  -56.6056 C.3       7 UNK         0.0281 
     36 CB         29.2748  -52.0231  -57.0505 C.3       7 UNK        -0.1963 
     37 N          28.0143  -50.8405  -55.3121 N.am      7 UNK        -0.4444 
     38 C          26.9886  -50.5722  -54.4910 C.2       7 UNK         0.5104 
     39 O          25.8084  -50.7780  -54.7740 O.2       7 UNK        -0.5100 
     40 CA         27.3412  -49.9940  -53.1107 C.3       6 UNK         0.0396 
     41 CB         27.9174  -51.0818  -52.1888 C.3       6 UNK        -0.1801 
     42 N          28.2985  -48.8958  -53.2381 N.am      6 UNK        -0.4747 
     43 C          27.9514  -47.6032  -53.3235 C.2       6 UNK         0.5012 
     44 O          26.8003  -47.2033  -53.1509 O.2       6 UNK        -0.5003 
     45 CA         29.0516  -46.5843  -53.7020 C.3       5 UNK         0.0782 
     46 C46        29.3761  -45.5942  -52.5505 C.3       11 UNK        -0.0868 
     47 S47        28.3139  -44.1082  -52.6333 S.3       11 UNK        -0.2515 
     48 C48        29.4736  -42.7931  -53.1535 C.3       11 UNK         0.0199 
     49 N          30.2516  -47.2178  -54.2643 N.am      5 UNK        -0.4607 
     50 C          30.2870  -47.7418  -55.4978 C.2       4 UNK         0.5031 
     51 O          29.3180  -47.7337  -56.2583 O.2       4 UNK        -0.5119 
     52 CA         31.5742  -48.4436  -55.9567 C.3       4 UNK         0.0263 
     53 CB         32.5244  -47.4601  -56.6521 C.3       4 UNK        -0.1967 
     54 N          32.2901  -49.1575  -54.8980 N.am      4 UNK        -0.4237 
     55 C          31.7991  -50.2038  -54.2184 C.2       3 UNK         0.4908 
     56 O          30.6337  -50.5882  -54.3126 O.2       3 UNK        -0.5102 
     57 CA         32.7627  -50.9434  -53.2822 C.3       3 UNK         0.0241 
     58 CB         33.7700  -51.7774  -54.0911 C.3       3 UNK        -0.1971 
     59 N          33.4806  -49.9943  -52.4353 N.am      3 UNK        -0.4139 
     60 C          33.1739  -49.7331  -51.1573 C.2       2 UNK         0.5016 
     61 O          32.3311  -50.3552  -50.5095 O.2       2 UNK        -0.5319 
     62 CA         33.9173  -48.5626  -50.4838 C.3       2 UNK         0.0286 
     63 CB         35.1275  -49.0800  -49.6897 C.3       2 UNK        -0.1963 
     64 N          34.3629  -47.5199  -51.4153 N.am      2 UNK        -0.4790 
     65 C          33.5527  -46.8010  -52.2072 C.2       1 UNK         0.5024 
     66 O          32.3288  -46.9261  -52.2211 O.2       1 UNK        -0.4888 
     67 H67        37.8301  -46.8087  -54.6365 H         1 UNK         0.0892 
     68 H68        37.1606  -47.8384  -55.9043 H         1 UNK         0.0892 
     69 H69        37.6154  -48.5374  -54.3481 H         1 UNK         0.0892 
     70 H70        36.2616  -45.5862  -53.6218 H         1 UNK         0.3107 
     71 H71        33.5347  -45.7579  -54.0379 H         1 UNK         0.0773 
     72 H72        33.3358  -44.1278  -52.1196 H         1 UNK         0.0680 
     73 H73        34.9888  -44.4358  -51.6927 H         1 UNK         0.0680 
     74 H74        34.4166  -42.5983  -55.9518 H         1 UNK         0.0650 
     75 H75        34.5050  -44.3119  -55.6604 H         1 UNK         0.0650 
     76 H76        32.1628  -42.6389  -53.3649 H         1 UNK         0.1397 
     77 H77        28.6959  -43.7720  -55.5872 H         1 UNK         0.1363 
     78 H78        32.5846  -44.2398  -57.3249 H         1 UNK         0.1355 
     79 H79        29.0915  -45.2696  -57.5707 H         1 UNK         0.0707 
     80 H80        30.6544  -45.3522  -58.3022 H         1 UNK         0.0707 
     81 H81        28.2036  -41.4385  -58.8586 H         1 UNK         0.1034 
     82 H82        28.4820  -42.1666  -57.3255 H         1 UNK         0.1034 
     83 H83        26.1294  -42.2700  -57.8566 H         1 UNK         0.0482 
     84 H84        25.2604  -44.2310  -61.2003 H         1 UNK         0.3460 
     85 H85        25.6414  -45.0506  -59.7060 H         1 UNK         0.3460 
     86 H86        27.4805  -44.8585  -57.7206 H         1 UNK         0.2989 
     87 H87        26.3321  -45.9133  -55.3690 H         1 UNK         0.0559 
     88 H88        23.8118  -46.9006  -56.8007 H         1 UNK         0.0848 
     89 H89        23.8733  -46.1014  -55.2352 H         1 UNK         0.0848 
     90 H90        24.5826  -47.6944  -55.4261 H         1 UNK         0.0848 
     91 H91        27.4157  -47.4125  -56.6164 H         1 UNK         0.3144 
     92 H92        26.7548  -49.0232  -59.6964 H         1 UNK         0.0727 
     93 H93        29.1350  -48.5910  -60.1213 H         1 UNK         0.0790 
     94 H94        29.1820  -47.3402  -58.8860 H         1 UNK         0.0790 
     95 H95        28.2267  -47.1046  -60.3427 H         1 UNK         0.0790 
     96 H96        28.4953  -49.0949  -57.2697 H         1 UNK         0.3215 
     97 H97        27.2514  -52.3879  -56.4629 H         1 UNK         0.0863 
     98 H98        29.6945  -52.7170  -56.3218 H         1 UNK         0.0808 
     99 H99        29.9863  -51.2075  -57.1799 H         1 UNK         0.0808 
    100 H100       29.2088  -52.5531  -58.0017 H         1 UNK         0.0808 
    101 H101       28.9613  -50.6805  -54.9719 H         1 UNK         0.3118 
    102 H102       26.4173  -49.6350  -52.6521 H         1 UNK         0.0546 
    103 H103       27.2096  -51.9029  -52.0682 H         1 UNK         0.0828 
    104 H104       28.1259  -50.6862  -51.1948 H         1 UNK         0.0828 
    105 H105       28.8429  -51.5063  -52.5783 H         1 UNK         0.0828 
    106 H106       29.2611  -49.1535  -53.4188 H         1 UNK         0.3005 
    107 H107       28.6206  -46.0034  -54.5186 H         1 UNK         0.1257 
    108 H108       30.4138  -45.2658  -52.6037 H         1 UNK         0.0775 
    109 H109       29.2724  -46.0633  -51.5703 H         1 UNK         0.0775 
    110 H110       28.9021  -41.8983  -53.4033 H         1 UNK         0.0840 
    111 H111       30.0940  -42.5293  -52.2955 H         1 UNK         0.0840 
    112 H112       31.0683  -47.2611  -53.6615 H         1 UNK         0.2987 
    113 H113       31.2809  -49.1905  -56.6965 H         1 UNK         0.0785 
    114 H114       32.8262  -46.6515  -55.9893 H         1 UNK         0.0798 
    115 H115       32.0497  -47.0124  -57.5243 H         1 UNK         0.0798 
    116 H116       33.4280  -47.9599  -57.0016 H         1 UNK         0.0798 
    117 H117       33.2644  -48.8918  -54.7562 H         1 UNK         0.3079 
    118 H118       32.1718  -51.6299  -52.6720 H         1 UNK         0.0794 
    119 H119       34.4077  -51.1529  -54.7184 H         1 UNK         0.0786 
    120 H120       33.2560  -52.4827  -54.7457 H         1 UNK         0.0786 
    121 H121       34.4169  -52.3583  -53.4335 H         1 UNK         0.0786 
    122 H122       34.1644  -49.4043  -52.8978 H         1 UNK         0.3032 
    123 H123       33.2169  -48.1010  -49.7840 H         1 UNK         0.1094 
    124 H124       35.6069  -48.2783  -49.1276 H         1 UNK         0.0794 
    125 H125       34.8246  -49.8411  -48.9689 H         1 UNK         0.0794 
    126 H126       35.8768  -49.5296  -50.3425 H         1 UNK         0.0794 
    127 H127       35.3581  -47.3601  -51.4801 H         1 UNK         0.3016 
@<TRIPOS>BOND
     1    1    2 1    
     2    1   67 1    
     3    1   68 1    
     4    1   69 1    
     5    2    3 2    
     6    2    4 am   BACKBONE|DICT|INTERRES
     7    4    5 1    
     8    4   70 1    
     9    5    6 1    
    10    5   65 1    
    11    5   71 1    
    12    6    7 1    
    13    6   72 1    
    14    6   73 1    
    15    7    8 1    
    16    8    9 1    
    17    8   74 1    
    18    8   75 1    
    19    9   10 ar   
    20    9   14 ar   
    21   10   11 ar   
    22   10   76 1    
    23   11   12 ar   
    24   11   48 1    
    25   12   13 ar   
    26   12   77 1    
    27   13   14 ar   
    28   13   15 1    
    29   14   78 1    
    30   15   16 1    
    31   15   79 1    
    32   15   80 1    
    33   16   17 1    
    34   17   18 1    
    35   17   81 1    
    36   17   82 1    
    37   18   19 1    
    38   18   22 1    
    39   18   83 1    
    40   19   20 am   BACKBONE|DICT|INTERRES
    41   19   21 2    
    42   20   84 1    
    43   20   85 1    
    44   22   23 am   BACKBONE|DICT|INTERRES
    45   22   86 1    
    46   23   24 2    
    47   23   25 1    
    48   25   26 1    
    49   25   27 1    
    50   25   87 1    
    51   26   88 1    
    52   26   89 1    
    53   26   90 1    
    54   27   28 am   BACKBONE|DICT|INTERRES
    55   27   91 1    
    56   28   29 2    
    57   28   30 1    
    58   30   31 1    
    59   30   32 1    
    60   30   92 1    
    61   31   93 1    
    62   31   94 1    
    63   31   95 1    
    64   32   33 am   BACKBONE|DICT|INTERRES
    65   32   96 1    
    66   33   34 2    
    67   33   35 1    
    68   35   36 1    
    69   35   37 1    
    70   35   97 1    
    71   36   98 1    
    72   36   99 1    
    73   36  100 1    
    74   37   38 am   BACKBONE|DICT|INTERRES
    75   37  101 1    
    76   38   39 2    
    77   38   40 1    
    78   40   41 1    
    79   40   42 1    
    80   40  102 1    
    81   41  103 1    
    82   41  104 1    
    83   41  105 1    
    84   42   43 am   BACKBONE|DICT|INTERRES
    85   42  106 1    
    86   43   44 2    
    87   43   45 1    
    88   45   46 1    
    89   45   49 1    
    90   45  107 1    
    91   46   47 1    
    92   46  108 1    
    93   46  109 1    
    94   47   48 1    
    95   48  110 1    
    96   48  111 1    
    97   49   50 am   BACKBONE|DICT|INTERRES
    98   49  112 1    
    99   50   51 2    
   100   50   52 1    
   101   52   53 1    
   102   52   54 1    
   103   52  113 1    
   104   53  114 1    
   105   53  115 1    
   106   53  116 1    
   107   54   55 am   BACKBONE|DICT|INTERRES
   108   54  117 1    
   109   55   56 2    
   110   55   57 1    
   111   57   58 1    
   112   57   59 1    
   113   57  118 1    
   114   58  119 1    
   115   58  120 1    
   116   58  121 1    
   117   59   60 am   BACKBONE|DICT|INTERRES
   118   59  122 1    
   119   60   61 2    
   120   60   62 1    
   121   62   63 1    
   122   62   64 1    
   123   62  123 1    
   124   63  124 1    
   125   63  125 1    
   126   63  126 1    
   127   64   65 am   BACKBONE|DICT|INTERRES
   128   64  127 1    
   129   65   66 2    
@<TRIPOS>SUBSTRUCTURE
     1 UNK         1 GROUP             0       ****    0 ROOT    
