@<TRIPOS>MOLECULE
3R134
127   129    1
SMALL
USER_CHARGES


@<TRIPOS>ATOM
      1 CA         33.7425  -42.3989  -48.7216 C.3       0 UNK        -0.1968 
      2 C          33.1730  -43.2971  -49.8105 C.2       0 UNK         0.4852 
      3 O          32.2283  -44.0431  -49.5474 O.2       0 UNK        -0.5359 
      4 N          33.7440  -43.2238  -51.0221 N.am      1 UNK        -0.4300 
      5 CA         33.3775  -44.0036  -52.2141 C.3       1 UNK         0.0863 
      6 C6         31.9510  -43.6888  -52.7558 C.3       11 UNK        -0.0953 
      7 S7         31.5924  -41.9039  -52.9396 S.3       11 UNK        -0.2369 
      8 C8         32.4745  -41.4420  -54.4660 C.3       11 UNK         0.0226 
      9 C9         32.0723  -42.3009  -55.6542 C.ar      11 UNK        -0.0699 
     10 C10        32.9824  -43.2164  -56.1888 C.ar      11 UNK        -0.0804 
     11 C11        32.6066  -44.0545  -57.2404 C.ar      11 UNK        -0.0871 
     12 C12        31.3211  -43.9537  -57.7770 C.ar      11 UNK        -0.1008 
     13 C13        30.4012  -43.0459  -57.2481 C.ar      11 UNK        -0.0735 
     14 C14        30.7859  -42.2086  -56.1961 C.ar      11 UNK        -0.0945 
     15 C15        28.9845  -43.0083  -57.7969 C.3       11 UNK         0.0169 
     16 S16        27.9481  -44.2943  -57.0265 S.3       11 UNK        -0.2669 
     17 C17        27.5614  -43.5403  -55.4096 C.3       11 UNK        -0.0850 
     18 CA         28.3234  -44.1803  -54.2085 C.3       10 UNK         0.0855 
     19 C          28.0923  -43.3946  -52.8798 C.2       10 UNK         0.5543 
     20 N          28.1543  -44.0356  -51.7181 N.am      10 UNK        -0.7343 
     21 O          27.8678  -42.1868  -52.8936 O.2       10 UNK        -0.5027 
     22 N          28.1291  -45.6379  -54.0701 N.am      10 UNK        -0.4495 
     23 C          26.9549  -46.2593  -53.9016 C.2       10 UNK         0.4903 
     24 O          25.8535  -45.7079  -53.9449 O.2       10 UNK        -0.4860 
     25 CA         27.0233  -47.7558  -53.5732 C.3       9 UNK         0.0227 
     26 CB         26.4030  -48.0442  -52.1950 C.3       9 UNK        -0.1964 
     27 N          26.3539  -48.5643  -54.5883 N.am      9 UNK        -0.4231 
     28 C          26.8543  -48.8096  -55.8031 C.2       9 UNK         0.5014 
     29 O          27.9237  -48.3488  -56.2256 O.2       9 UNK        -0.5270 
     30 CA         26.0420  -49.7616  -56.6913 C.3       8 UNK         0.0284 
     31 CB         24.8344  -49.0478  -57.3251 C.3       8 UNK        -0.1977 
     32 N          26.9562  -50.2135  -57.7251 N.am      8 UNK        -0.4342 
     33 C          26.8764  -51.2705  -58.5360 C.2       8 UNK         0.5039 
     34 O          25.9444  -52.0758  -58.5255 O.2       8 UNK        -0.5547 
     35 CA         28.0643  -51.4611  -59.5076 C.3       7 UNK         0.0281 
     36 CB         27.6311  -52.0322  -60.8744 C.3       7 UNK        -0.1963 
     37 N          28.8828  -50.2434  -59.6574 N.am      7 UNK        -0.4444 
     38 C          28.4988  -49.0669  -60.1838 C.2       7 UNK         0.5104 
     39 O          27.4379  -48.9020  -60.7868 O.2       7 UNK        -0.5100 
     40 CA         29.4167  -47.8586  -59.9200 C.3       6 UNK         0.0396 
     41 CB         28.6432  -46.5278  -59.9606 C.3       6 UNK        -0.1801 
     42 N          30.0731  -47.9833  -58.6136 N.am      6 UNK        -0.4747 
     43 C          31.3889  -48.1560  -58.4305 C.2       6 UNK         0.5012 
     44 O          32.2122  -48.1755  -59.3459 O.2       6 UNK        -0.5003 
     45 CA         31.8596  -48.3915  -56.9800 C.3       5 UNK         0.0782 
     46 C46        32.1262  -47.0533  -56.2514 C.3       11 UNK        -0.0868 
     47 S47        33.8223  -46.4329  -56.5218 S.3       11 UNK        -0.2515 
     48 C48        33.5671  -45.1145  -57.7537 C.3       11 UNK         0.0199 
     49 N          30.9588  -49.2529  -56.2031 N.am      5 UNK        -0.4607 
     50 C          30.6504  -50.5227  -56.5053 C.2       4 UNK         0.5031 
     51 O          31.0025  -51.0770  -57.5469 O.2       4 UNK        -0.5119 
     52 CA         29.8225  -51.3041  -55.4729 C.3       4 UNK         0.0263 
     53 CB         30.0260  -52.8284  -55.5697 C.3       4 UNK        -0.1967 
     54 N          30.1233  -50.8455  -54.1157 N.am      4 UNK        -0.4237 
     55 C          29.2250  -50.7305  -53.1315 C.2       3 UNK         0.4908 
     56 O          28.0465  -51.0676  -53.2459 O.2       3 UNK        -0.5102 
     57 CA         29.7030  -50.1513  -51.7855 C.3       3 UNK         0.0241 
     58 CB         29.6972  -51.2433  -50.7024 C.3       3 UNK        -0.1971 
     59 N          31.0264  -49.5159  -51.8100 N.am      3 UNK        -0.4139 
     60 C          31.3174  -48.3442  -52.3904 C.2       2 UNK         0.5016 
     61 O          30.5236  -47.6897  -53.0748 O.2       2 UNK        -0.5319 
     62 CA         32.7453  -47.8255  -52.1808 C.3       2 UNK         0.0286 
     63 CB         33.7623  -48.5737  -53.0656 C.3       2 UNK        -0.1963 
     64 N          32.7580  -46.3918  -52.4610 N.am      2 UNK        -0.4790 
     65 C          33.6462  -45.5127  -51.9816 C.2       1 UNK         0.5024 
     66 O          34.6586  -45.8531  -51.3637 O.2       1 UNK        -0.4888 
     67 H67        34.1119  -43.0023  -47.8928 H         1 UNK         0.0892 
     68 H68        34.5654  -41.7846  -49.0869 H         1 UNK         0.0892 
     69 H69        32.9673  -41.7344  -48.3412 H         1 UNK         0.0892 
     70 H70        34.5335  -42.6065  -51.1480 H         1 UNK         0.3107 
     71 H71        34.0860  -43.7063  -52.9883 H         1 UNK         0.0773 
     72 H72        31.1949  -44.0914  -52.0796 H         1 UNK         0.0680 
     73 H73        31.7851  -44.1793  -53.7156 H         1 UNK         0.0680 
     74 H74        33.5486  -41.5041  -54.2854 H         1 UNK         0.0650 
     75 H75        32.2628  -40.3960  -54.6915 H         1 UNK         0.0650 
     76 H76        33.9725  -43.3075  -55.7635 H         1 UNK         0.1397 
     77 H77        31.0205  -44.6145  -58.5778 H         1 UNK         0.1363 
     78 H78        30.0769  -41.5107  -55.7723 H         1 UNK         0.1355 
     79 H79        29.0064  -43.1767  -58.8747 H         1 UNK         0.0707 
     80 H80        28.5362  -42.0238  -57.6551 H         1 UNK         0.0707 
     81 H81        27.7786  -42.4729  -55.4665 H         1 UNK         0.1034 
     82 H82        26.4835  -43.5998  -55.2564 H         1 UNK         0.1034 
     83 H83        29.3869  -44.0586  -54.4130 H         1 UNK         0.0482 
     84 H84        28.3467  -45.0230  -51.6870 H         1 UNK         0.3460 
     85 H85        28.0128  -43.5200  -50.8641 H         1 UNK         0.3460 
     86 H86        28.9742  -46.1918  -54.0062 H         1 UNK         0.2989 
     87 H87        28.0675  -48.0631  -53.5399 H         1 UNK         0.0559 
     88 H88        26.9169  -47.4846  -51.4125 H         1 UNK         0.0848 
     89 H89        26.4761  -49.1010  -51.9381 H         1 UNK         0.0848 
     90 H90        25.3496  -47.7636  -52.1571 H         1 UNK         0.0848 
     91 H91        25.4610  -48.9612  -54.3350 H         1 UNK         0.3144 
     92 H92        25.7144  -50.6188  -56.0994 H         1 UNK         0.0727 
     93 H93        24.2756  -49.7175  -57.9790 H         1 UNK         0.0790 
     94 H94        25.1444  -48.1854  -57.9173 H         1 UNK         0.0790 
     95 H95        24.1427  -48.6899  -56.5617 H         1 UNK         0.0790 
     96 H96        27.7761  -49.6228  -57.7814 H         1 UNK         0.3215 
     97 H97        28.7154  -52.1998  -59.0374 H         1 UNK         0.0863 
     98 H98        28.4819  -52.1443  -61.5463 H         1 UNK         0.0808 
     99 H99        26.8933  -51.3986  -61.3670 H         1 UNK         0.0808 
    100 H100       27.1795  -53.0181  -60.7577 H         1 UNK         0.0808 
    101 H101       29.7838  -50.2773  -59.1917 H         1 UNK         0.3118 
    102 H102       30.1523  -47.8438  -60.7263 H         1 UNK         0.0546 
    103 H103       27.8479  -46.5033  -59.2144 H         1 UNK         0.0828 
    104 H104       28.1822  -46.3677  -60.9360 H         1 UNK         0.0828 
    105 H105       29.3008  -45.6798  -59.7762 H         1 UNK         0.0828 
    106 H106       29.4695  -47.9747  -57.7974 H         1 UNK         0.3005 
    107 H107       32.8007  -48.9428  -57.0478 H         1 UNK         0.1257 
    108 H108       31.3710  -46.3068  -56.4953 H         1 UNK         0.0775 
    109 H109       32.0300  -47.1817  -55.1759 H         1 UNK         0.0775 
    110 H110       34.5275  -44.6526  -57.9867 H         1 UNK         0.0840 
    111 H111       33.2049  -45.5551  -58.6839 H         1 UNK         0.0840 
    112 H112       30.5522  -48.8425  -55.3728 H         1 UNK         0.2987 
    113 H113       28.7782  -51.0905  -55.7035 H         1 UNK         0.0785 
    114 H114       29.7547  -53.2009  -56.5583 H         1 UNK         0.0798 
    115 H115       29.4045  -53.3572  -54.8468 H         1 UNK         0.0798 
    116 H116       31.0644  -53.1067  -55.3868 H         1 UNK         0.0798 
    117 H117       31.0777  -50.5680  -53.9359 H         1 UNK         0.3079 
    118 H118       28.9785  -49.3877  -51.4966 H         1 UNK         0.0794 
    119 H119       29.9386  -50.8325  -49.7217 H         1 UNK         0.0786 
    120 H120       30.4149  -52.0346  -50.9229 H         1 UNK         0.0786 
    121 H121       28.7141  -51.7095  -50.6204 H         1 UNK         0.0786 
    122 H122       31.7511  -49.9859  -51.2856 H         1 UNK         0.3032 
    123 H123       33.0046  -47.9735  -51.1297 H         1 UNK         0.1094 
    124 H124       33.5274  -48.4967  -54.1255 H         1 UNK         0.0794 
    125 H125       34.7719  -48.1882  -52.9239 H         1 UNK         0.0794 
    126 H126       33.7911  -49.6353  -52.8182 H         1 UNK         0.0794 
    127 H127       31.9244  -46.0652  -52.9337 H         1 UNK         0.3016 
@<TRIPOS>BOND
     1    1    2 1    
     2    1   67 1    
     3    1   68 1    
     4    1   69 1    
     5    2    3 2    
     6    2    4 am   BACKBONE|DICT|INTERRES
     7    4    5 1    
     8    4   70 1    
     9    5    6 1    
    10    5   65 1    
    11    5   71 1    
    12    6    7 1    
    13    6   72 1    
    14    6   73 1    
    15    7    8 1    
    16    8    9 1    
    17    8   74 1    
    18    8   75 1    
    19    9   10 ar   
    20    9   14 ar   
    21   10   11 ar   
    22   10   76 1    
    23   11   12 ar   
    24   11   48 1    
    25   12   13 ar   
    26   12   77 1    
    27   13   14 ar   
    28   13   15 1    
    29   14   78 1    
    30   15   16 1    
    31   15   79 1    
    32   15   80 1    
    33   16   17 1    
    34   17   18 1    
    35   17   81 1    
    36   17   82 1    
    37   18   19 1    
    38   18   22 1    
    39   18   83 1    
    40   19   20 am   BACKBONE|DICT|INTERRES
    41   19   21 2    
    42   20   84 1    
    43   20   85 1    
    44   22   23 am   BACKBONE|DICT|INTERRES
    45   22   86 1    
    46   23   24 2    
    47   23   25 1    
    48   25   26 1    
    49   25   27 1    
    50   25   87 1    
    51   26   88 1    
    52   26   89 1    
    53   26   90 1    
    54   27   28 am   BACKBONE|DICT|INTERRES
    55   27   91 1    
    56   28   29 2    
    57   28   30 1    
    58   30   31 1    
    59   30   32 1    
    60   30   92 1    
    61   31   93 1    
    62   31   94 1    
    63   31   95 1    
    64   32   33 am   BACKBONE|DICT|INTERRES
    65   32   96 1    
    66   33   34 2    
    67   33   35 1    
    68   35   36 1    
    69   35   37 1    
    70   35   97 1    
    71   36   98 1    
    72   36   99 1    
    73   36  100 1    
    74   37   38 am   BACKBONE|DICT|INTERRES
    75   37  101 1    
    76   38   39 2    
    77   38   40 1    
    78   40   41 1    
    79   40   42 1    
    80   40  102 1    
    81   41  103 1    
    82   41  104 1    
    83   41  105 1    
    84   42   43 am   BACKBONE|DICT|INTERRES
    85   42  106 1    
    86   43   44 2    
    87   43   45 1    
    88   45   46 1    
    89   45   49 1    
    90   45  107 1    
    91   46   47 1    
    92   46  108 1    
    93   46  109 1    
    94   47   48 1    
    95   48  110 1    
    96   48  111 1    
    97   49   50 am   BACKBONE|DICT|INTERRES
    98   49  112 1    
    99   50   51 2    
   100   50   52 1    
   101   52   53 1    
   102   52   54 1    
   103   52  113 1    
   104   53  114 1    
   105   53  115 1    
   106   53  116 1    
   107   54   55 am   BACKBONE|DICT|INTERRES
   108   54  117 1    
   109   55   56 2    
   110   55   57 1    
   111   57   58 1    
   112   57   59 1    
   113   57  118 1    
   114   58  119 1    
   115   58  120 1    
   116   58  121 1    
   117   59   60 am   BACKBONE|DICT|INTERRES
   118   59  122 1    
   119   60   61 2    
   120   60   62 1    
   121   62   63 1    
   122   62   64 1    
   123   62  123 1    
   124   63  124 1    
   125   63  125 1    
   126   63  126 1    
   127   64   65 am   BACKBONE|DICT|INTERRES
   128   64  127 1    
   129   65   66 2    
@<TRIPOS>SUBSTRUCTURE
     1 UNK         1 GROUP             0       ****    0 ROOT    
