@<TRIPOS>MOLECULE
3R134
127   129    1
SMALL
USER_CHARGES


@<TRIPOS>ATOM
      1 CA         29.8024  -42.9310  -51.2651 C.3       0 UNK        -0.1968 
      2 C          31.0826  -43.4974  -50.6688 C.2       0 UNK         0.4852 
      3 O          31.8122  -42.7754  -49.9878 O.2       0 UNK        -0.5359 
      4 N          31.3527  -44.7823  -50.9148 N.am      1 UNK        -0.4300 
      5 CA         32.4976  -45.5383  -50.4115 C.3       1 UNK         0.0863 
      6 C6         33.8532  -45.1173  -51.0523 C.3       11 UNK        -0.0953 
      7 S7         33.9579  -45.4369  -52.8452 S.3       11 UNK        -0.2369 
      8 C8         33.7621  -43.7711  -53.5534 C.3       11 UNK         0.0226 
      9 C9         32.9920  -43.8336  -54.8634 C.ar      11 UNK        -0.0699 
     10 C10        33.5716  -44.4117  -55.9954 C.ar      11 UNK        -0.0804 
     11 C11        32.8502  -44.5206  -57.1877 C.ar      11 UNK        -0.0871 
     12 C12        31.5345  -44.0460  -57.2425 C.ar      11 UNK        -0.1008 
     13 C13        30.9455  -43.4498  -56.1201 C.ar      11 UNK        -0.0735 
     14 C14        31.6884  -43.3364  -54.9390 C.ar      11 UNK        -0.0945 
     15 C15        29.5195  -42.9082  -56.1939 C.3       11 UNK         0.0169 
     16 S16        28.4963  -43.4212  -54.7727 S.3       11 UNK        -0.2669 
     17 C17        26.9165  -42.5765  -55.1113 C.3       11 UNK        -0.0850 
     18 CA         25.7427  -43.5747  -55.2852 C.3       10 UNK         0.0855 
     19 C          24.3860  -42.8184  -55.3016 C.2       10 UNK         0.5543 
     20 N          23.7586  -42.6454  -54.1466 N.am      10 UNK        -0.7343 
     21 O          23.9241  -42.3498  -56.3407 O.2       10 UNK        -0.5027 
     22 N          25.9251  -44.4186  -56.4746 N.am      10 UNK        -0.4495 
     23 C          25.1920  -45.4985  -56.7732 C.2       10 UNK         0.4903 
     24 O          24.3221  -45.9656  -56.0362 O.2       10 UNK        -0.4860 
     25 CA         25.4469  -46.1661  -58.1317 C.3       9 UNK         0.0227 
     26 CB         26.3768  -45.3727  -59.0760 C.3       9 UNK        -0.1964 
     27 N          25.9759  -47.5141  -57.9243 N.am      9 UNK        -0.4231 
     28 C          25.6781  -48.5712  -58.6924 C.2       9 UNK         0.5014 
     29 O          24.8786  -48.5198  -59.6294 O.2       9 UNK        -0.5270 
     30 CA         26.3903  -49.9122  -58.4211 C.3       8 UNK         0.0284 
     31 CB         27.3261  -50.2613  -59.5912 C.3       8 UNK        -0.1977 
     32 N          27.1612  -49.9525  -57.1775 N.am      8 UNK        -0.4342 
     33 C          26.6407  -50.0987  -55.9525 C.2       8 UNK         0.5039 
     34 O          25.4388  -50.2502  -55.7319 O.2       8 UNK        -0.5547 
     35 CA         27.6273  -50.0372  -54.7709 C.3       7 UNK         0.0281 
     36 CB         28.2451  -51.4185  -54.5018 C.3       7 UNK        -0.1963 
     37 N          28.6965  -49.0525  -54.9640 N.am      7 UNK        -0.4444 
     38 C          28.4980  -47.7350  -55.1172 C.2       7 UNK         0.5104 
     39 O          27.3915  -47.2013  -55.0822 O.2       7 UNK        -0.5100 
     40 CA         29.7356  -46.8830  -55.4181 C.3       6 UNK         0.0396 
     41 CB         30.5428  -46.6135  -54.1414 C.3       6 UNK        -0.1801 
     42 N          30.5789  -47.5193  -56.4272 N.am      6 UNK        -0.4747 
     43 C          30.2870  -47.5440  -57.7359 C.2       6 UNK         0.5012 
     44 O          29.3144  -46.9751  -58.2293 O.2       6 UNK        -0.5003 
     45 CA         31.2061  -48.3740  -58.6532 C.3       5 UNK         0.0782 
     46 C46        32.2538  -47.4914  -59.3750 C.3       11 UNK        -0.0868 
     47 S47        33.6390  -46.9366  -58.3178 S.3       11 UNK        -0.2515 
     48 C48        33.5200  -45.1201  -58.4160 C.3       11 UNK         0.0199 
     49 N          31.8108  -49.5204  -57.9673 N.am      5 UNK        -0.4607 
     50 C          31.1258  -50.5773  -57.5103 C.2       4 UNK         0.5031 
     51 O          29.9146  -50.7228  -57.6657 O.2       4 UNK        -0.5119 
     52 CA         31.9134  -51.6145  -56.6923 C.3       4 UNK         0.0263 
     53 CB         32.5754  -52.6450  -57.6202 C.3       4 UNK        -0.1967 
     54 N          32.9262  -51.0087  -55.8204 N.am      4 UNK        -0.4237 
     55 C          32.6533  -50.1542  -54.8246 C.2       3 UNK         0.4908 
     56 O          31.5119  -49.7913  -54.5317 O.2       3 UNK        -0.5102 
     57 CA         33.8677  -49.5506  -54.0991 C.3       3 UNK         0.0241 
     58 CB         34.3967  -48.3408  -54.8871 C.3       3 UNK        -0.1971 
     59 N          33.5701  -49.1346  -52.7249 N.am      3 UNK        -0.4139 
     60 C          33.2606  -49.9689  -51.7213 C.2       2 UNK         0.5016 
     61 O          33.1960  -51.1926  -51.8548 O.2       2 UNK        -0.5319 
     62 CA         33.0260  -49.3654  -50.3200 C.3       2 UNK         0.0286 
     63 CB         33.9986  -49.9764  -49.2951 C.3       2 UNK        -0.1963 
     64 N          33.1543  -47.9042  -50.2638 N.am      2 UNK        -0.4790 
     65 C          32.1709  -47.0410  -50.5478 C.2       1 UNK         0.5024 
     66 O          31.0439  -47.3940  -50.9055 O.2       1 UNK        -0.4888 
     67 H67        29.2304  -43.6914  -51.7964 H         1 UNK         0.0892 
     68 H68        29.1698  -42.5216  -50.4781 H         1 UNK         0.0892 
     69 H69        30.0350  -42.1302  -51.9665 H         1 UNK         0.0892 
     70 H70        30.6954  -45.3617  -51.4223 H         1 UNK         0.3107 
     71 H71        32.5615  -45.3470  -49.3384 H         1 UNK         0.0773 
     72 H72        34.0474  -44.0617  -50.8599 H         1 UNK         0.0680 
     73 H73        34.6801  -45.6411  -50.5710 H         1 UNK         0.0680 
     74 H74        34.7460  -43.3309  -53.7195 H         1 UNK         0.0650 
     75 H75        33.2460  -43.1217  -52.8452 H         1 UNK         0.0650 
     76 H76        34.5825  -44.7927  -55.9424 H         1 UNK         0.1397 
     77 H77        30.9721  -44.1337  -58.1621 H         1 UNK         0.1363 
     78 H78        31.2397  -42.8801  -54.0683 H         1 UNK         0.1355 
     79 H79        29.0321  -43.2406  -57.1118 H         1 UNK         0.0707 
     80 H80        29.5612  -41.8189  -56.2333 H         1 UNK         0.0707 
     81 H81        26.7265  -41.9081  -54.2690 H         1 UNK         0.1034 
     82 H82        27.0098  -41.9326  -55.9879 H         1 UNK         0.1034 
     83 H83        25.7383  -44.2427  -54.4210 H         1 UNK         0.0482 
     84 H84        24.1342  -43.0181  -53.2883 H         1 UNK         0.3460 
     85 H85        22.8848  -42.1427  -54.1334 H         1 UNK         0.3460 
     86 H86        26.6139  -44.1045  -57.1396 H         1 UNK         0.2989 
     87 H87        24.4673  -46.2304  -58.6100 H         1 UNK         0.0559 
     88 H88        27.3815  -45.2631  -58.6672 H         1 UNK         0.0848 
     89 H89        25.9828  -44.3747  -59.2729 H         1 UNK         0.0848 
     90 H90        26.4711  -45.8713  -60.0407 H         1 UNK         0.0848 
     91 H91        26.5909  -47.6316  -57.1266 H         1 UNK         0.3144 
     92 H92        25.6165  -50.6810  -58.3677 H         1 UNK         0.0727 
     93 H93        27.7892  -51.2384  -59.4521 H         1 UNK         0.0790 
     94 H94        28.1226  -49.5243  -59.6997 H         1 UNK         0.0790 
     95 H95        26.7812  -50.2948  -60.5356 H         1 UNK         0.0790 
     96 H96        28.1738  -49.9319  -57.2706 H         1 UNK         0.3215 
     97 H97        27.0626  -49.7364  -53.8860 H         1 UNK         0.0863 
     98 H98        28.9119  -51.3948  -53.6395 H         1 UNK         0.0808 
     99 H99        28.8171  -51.7785  -55.3571 H         1 UNK         0.0808 
    100 H100       27.4701  -52.1574  -54.2940 H         1 UNK         0.0808 
    101 H101       29.6538  -49.3964  -54.9621 H         1 UNK         0.3118 
    102 H102       29.4011  -45.9259  -55.8184 H         1 UNK         0.0546 
    103 H103       29.9799  -45.9734  -53.4623 H         1 UNK         0.0828 
    104 H104       31.4785  -46.1078  -54.3675 H         1 UNK         0.0828 
    105 H105       30.7837  -47.5278  -53.6008 H         1 UNK         0.0828 
    106 H106       31.3705  -48.0495  -56.0924 H         1 UNK         0.3005 
    107 H107       30.5520  -48.7833  -59.4268 H         1 UNK         0.1257 
    108 H108       31.7674  -46.6366  -59.8482 H         1 UNK         0.0775 
    109 H109       32.6895  -48.0610  -60.1973 H         1 UNK         0.0775 
    110 H110       34.5305  -44.7166  -58.4969 H         1 UNK         0.0840 
    111 H111       33.0096  -44.8114  -59.3291 H         1 UNK         0.0840 
    112 H112       32.8038  -49.4623  -57.7954 H         1 UNK         0.2987 
    113 H113       31.1997  -52.1393  -56.0539 H         1 UNK         0.0785 
    114 H114       31.8344  -53.1206  -58.2647 H         1 UNK         0.0798 
    115 H115       33.0618  -53.4373  -57.0509 H         1 UNK         0.0798 
    116 H116       33.3242  -52.1870  -58.2678 H         1 UNK         0.0798 
    117 H117       33.8891  -51.2505  -56.0072 H         1 UNK         0.3079 
    118 H118       34.6533  -50.3076  -54.0509 H         1 UNK         0.0794 
    119 H119       33.6360  -47.5668  -55.0003 H         1 UNK         0.0786 
    120 H120       34.7142  -48.6310  -55.8892 H         1 UNK         0.0786 
    121 H121       35.2609  -47.8920  -54.3970 H         1 UNK         0.0786 
    122 H122       33.5793  -48.1429  -52.5362 H         1 UNK         0.3032 
    123 H123       32.0107  -49.6442  -50.0274 H         1 UNK         0.1094 
    124 H124       35.0376  -49.7562  -49.5433 H         1 UNK         0.0794 
    125 H125       33.8051  -49.5998  -48.2904 H         1 UNK         0.0794 
    126 H126       33.8969  -51.0618  -49.2537 H         1 UNK         0.0794 
    127 H127       34.0569  -47.5431  -49.9884 H         1 UNK         0.3016 
@<TRIPOS>BOND
     1    1    2 1    
     2    1   67 1    
     3    1   68 1    
     4    1   69 1    
     5    2    3 2    
     6    2    4 am   BACKBONE|DICT|INTERRES
     7    4    5 1    
     8    4   70 1    
     9    5    6 1    
    10    5   65 1    
    11    5   71 1    
    12    6    7 1    
    13    6   72 1    
    14    6   73 1    
    15    7    8 1    
    16    8    9 1    
    17    8   74 1    
    18    8   75 1    
    19    9   10 ar   
    20    9   14 ar   
    21   10   11 ar   
    22   10   76 1    
    23   11   12 ar   
    24   11   48 1    
    25   12   13 ar   
    26   12   77 1    
    27   13   14 ar   
    28   13   15 1    
    29   14   78 1    
    30   15   16 1    
    31   15   79 1    
    32   15   80 1    
    33   16   17 1    
    34   17   18 1    
    35   17   81 1    
    36   17   82 1    
    37   18   19 1    
    38   18   22 1    
    39   18   83 1    
    40   19   20 am   BACKBONE|DICT|INTERRES
    41   19   21 2    
    42   20   84 1    
    43   20   85 1    
    44   22   23 am   BACKBONE|DICT|INTERRES
    45   22   86 1    
    46   23   24 2    
    47   23   25 1    
    48   25   26 1    
    49   25   27 1    
    50   25   87 1    
    51   26   88 1    
    52   26   89 1    
    53   26   90 1    
    54   27   28 am   BACKBONE|DICT|INTERRES
    55   27   91 1    
    56   28   29 2    
    57   28   30 1    
    58   30   31 1    
    59   30   32 1    
    60   30   92 1    
    61   31   93 1    
    62   31   94 1    
    63   31   95 1    
    64   32   33 am   BACKBONE|DICT|INTERRES
    65   32   96 1    
    66   33   34 2    
    67   33   35 1    
    68   35   36 1    
    69   35   37 1    
    70   35   97 1    
    71   36   98 1    
    72   36   99 1    
    73   36  100 1    
    74   37   38 am   BACKBONE|DICT|INTERRES
    75   37  101 1    
    76   38   39 2    
    77   38   40 1    
    78   40   41 1    
    79   40   42 1    
    80   40  102 1    
    81   41  103 1    
    82   41  104 1    
    83   41  105 1    
    84   42   43 am   BACKBONE|DICT|INTERRES
    85   42  106 1    
    86   43   44 2    
    87   43   45 1    
    88   45   46 1    
    89   45   49 1    
    90   45  107 1    
    91   46   47 1    
    92   46  108 1    
    93   46  109 1    
    94   47   48 1    
    95   48  110 1    
    96   48  111 1    
    97   49   50 am   BACKBONE|DICT|INTERRES
    98   49  112 1    
    99   50   51 2    
   100   50   52 1    
   101   52   53 1    
   102   52   54 1    
   103   52  113 1    
   104   53  114 1    
   105   53  115 1    
   106   53  116 1    
   107   54   55 am   BACKBONE|DICT|INTERRES
   108   54  117 1    
   109   55   56 2    
   110   55   57 1    
   111   57   58 1    
   112   57   59 1    
   113   57  118 1    
   114   58  119 1    
   115   58  120 1    
   116   58  121 1    
   117   59   60 am   BACKBONE|DICT|INTERRES
   118   59  122 1    
   119   60   61 2    
   120   60   62 1    
   121   62   63 1    
   122   62   64 1    
   123   62  123 1    
   124   63  124 1    
   125   63  125 1    
   126   63  126 1    
   127   64   65 am   BACKBONE|DICT|INTERRES
   128   64  127 1    
   129   65   66 2    
@<TRIPOS>SUBSTRUCTURE
     1 UNK         1 GROUP             0       ****    0 ROOT    
