@<TRIPOS>MOLECULE
3R134
127   129    1
SMALL
USER_CHARGES


@<TRIPOS>ATOM
      1 CA         33.5874  -46.0745  -51.6903 C.3       0 UNK        -0.1968 
      2 C          33.6757  -46.0718  -53.2093 C.2       0 UNK         0.4852 
      3 O          32.6766  -46.3581  -53.8635 O.2       0 UNK        -0.5359 
      4 N          34.8709  -45.7766  -53.7500 N.am      1 UNK        -0.4300 
      5 CA         35.2543  -45.6695  -55.1733 C.3       1 UNK         0.0863 
      6 C6         34.9247  -44.2890  -55.8132 C.3       11 UNK        -0.0953 
      7 S7         33.1540  -43.9642  -56.1088 S.3       11 UNK        -0.2369 
      8 C8         32.7492  -42.7944  -54.7690 C.3       11 UNK         0.0226 
      9 C9         31.3409  -43.0085  -54.2264 C.ar      11 UNK        -0.0699 
     10 C10        31.1372  -43.1877  -52.8533 C.ar      11 UNK        -0.0804 
     11 C11        29.8519  -43.4039  -52.3467 C.ar      11 UNK        -0.0871 
     12 C12        28.7638  -43.4235  -53.2222 C.ar      11 UNK        -0.1008 
     13 C13        28.9565  -43.2749  -54.5957 C.ar      11 UNK        -0.0735 
     14 C14        30.2418  -43.0449  -55.0914 C.ar      11 UNK        -0.0945 
     15 C15        27.7864  -43.4566  -55.5433 C.3       11 UNK         0.0169 
     16 S16        27.1518  -41.8829  -56.1997 S.3       11 UNK        -0.2669 
     17 C17        27.7457  -41.9375  -57.9272 C.3       11 UNK        -0.0850 
     18 CA         26.7736  -42.6872  -58.8844 C.3       10 UNK         0.0855 
     19 C          27.1327  -42.4321  -60.3768 C.2       10 UNK         0.5543 
     20 N          27.3228  -43.4532  -61.2053 N.am      10 UNK        -0.7343 
     21 O          27.2228  -41.2820  -60.7991 O.2       10 UNK        -0.5027 
     22 N          26.7027  -44.1198  -58.5577 N.am      10 UNK        -0.4495 
     23 C          25.6685  -44.7744  -58.0245 C.2       10 UNK         0.4903 
     24 O          24.5803  -44.2529  -57.7800 O.2       10 UNK        -0.4860 
     25 CA         25.8728  -46.2631  -57.6717 C.3       9 UNK         0.0227 
     26 CB         25.3079  -47.1696  -58.7817 C.3       9 UNK        -0.1964 
     27 N          27.2427  -46.6715  -57.3117 N.am      9 UNK        -0.4231 
     28 C          28.3498  -46.6924  -58.0723 C.2       9 UNK         0.5014 
     29 O          28.4129  -46.2252  -59.2105 O.2       9 UNK        -0.5270 
     30 CA         29.5981  -47.3524  -57.4614 C.3       8 UNK         0.0284 
     31 CB         30.3347  -46.3728  -56.5353 C.3       8 UNK        -0.1977 
     32 N          29.2802  -48.5861  -56.7378 N.am      8 UNK        -0.4342 
     33 C          28.7928  -49.6989  -57.3092 C.2       8 UNK         0.5039 
     34 O          28.6656  -49.8502  -58.5247 O.2       8 UNK        -0.5547 
     35 CA         28.3431  -50.8255  -56.3662 C.3       7 UNK         0.0281 
     36 CB         29.5196  -51.7497  -56.0078 C.3       7 UNK        -0.1963 
     37 N          27.7299  -50.2873  -55.1491 N.am      7 UNK        -0.4444 
     38 C          26.4674  -49.8383  -55.0802 C.2       7 UNK         0.5104 
     39 O          25.6653  -49.9089  -56.0111 O.2       7 UNK        -0.5100 
     40 CA         26.0136  -49.1970  -53.7550 C.3       6 UNK         0.0396 
     41 CB         25.3054  -50.2380  -52.8738 C.3       6 UNK        -0.1801 
     42 N          27.1047  -48.5844  -52.9928 N.am      6 UNK        -0.4747 
     43 C          27.7709  -47.4788  -53.3596 C.2       6 UNK         0.5012 
     44 O          27.5120  -46.8361  -54.3781 O.2       6 UNK        -0.5003 
     45 CA         28.9648  -47.0685  -52.4666 C.3       5 UNK         0.0782 
     46 C46        28.4800  -46.2050  -51.2752 C.3       11 UNK        -0.0868 
     47 S47        29.8688  -45.3941  -50.4099 S.3       11 UNK        -0.2515 
     48 C48        29.6379  -43.6411  -50.8588 C.3       11 UNK         0.0199 
     49 N          29.7334  -48.2312  -51.9953 N.am      5 UNK        -0.4607 
     50 C          30.2902  -49.1615  -52.7787 C.2       4 UNK         0.5031 
     51 O          30.2461  -49.1377  -54.0118 O.2       4 UNK        -0.5119 
     52 CA         30.9099  -50.3699  -52.0692 C.3       4 UNK         0.0263 
     53 CB         29.8030  -51.3221  -51.5714 C.3       4 UNK        -0.1967 
     54 N          31.7730  -51.0496  -53.0269 N.am      4 UNK        -0.4237 
     55 C          32.6659  -52.0136  -52.7735 C.2       3 UNK         0.4908 
     56 O          32.8540  -52.5028  -51.6591 O.2       3 UNK        -0.5102 
     57 CA         33.5055  -52.5128  -53.9679 C.3       3 UNK         0.0241 
     58 CB         32.8688  -53.7716  -54.5799 C.3       3 UNK        -0.1971 
     59 N          33.6917  -51.5046  -55.0197 N.am      3 UNK        -0.4139 
     60 C          34.3464  -50.3473  -54.8502 C.2       2 UNK         0.5016 
     61 O          34.9391  -50.0503  -53.8074 O.2       2 UNK        -0.5319 
     62 CA         34.3041  -49.3375  -56.0101 C.3       2 UNK         0.0286 
     63 CB         32.9094  -49.2660  -56.6755 C.3       2 UNK        -0.1963 
     64 N          34.6720  -48.0452  -55.4411 N.am      2 UNK        -0.4790 
     65 C          34.9100  -46.8902  -56.0682 C.2       1 UNK         0.5024 
     66 O          34.9158  -46.7785  -57.2957 O.2       1 UNK        -0.4888 
     67 H67        32.8366  -45.3586  -51.3584 H         1 UNK         0.0892 
     68 H68        33.2917  -47.0616  -51.3360 H         1 UNK         0.0892 
     69 H69        34.5361  -45.8139  -51.2217 H         1 UNK         0.0892 
     70 H70        35.6327  -45.5876  -53.1134 H         1 UNK         0.3107 
     71 H71        36.3441  -45.7065  -55.1353 H         1 UNK         0.0773 
     72 H72        35.3420  -43.4904  -55.1987 H         1 UNK         0.0680 
     73 H73        35.4350  -44.1967  -56.7735 H         1 UNK         0.0680 
     74 H74        32.8433  -41.7745  -55.1433 H         1 UNK         0.0650 
     75 H75        33.4765  -42.9001  -53.9631 H         1 UNK         0.0650 
     76 H76        31.9807  -43.1746  -52.1773 H         1 UNK         0.1397 
     77 H77        27.7662  -43.5928  -52.8424 H         1 UNK         0.1363 
     78 H78        30.3931  -42.9314  -56.1555 H         1 UNK         0.1355 
     79 H79        28.1082  -44.1119  -56.3501 H         1 UNK         0.0707 
     80 H80        26.9691  -43.9810  -55.0456 H         1 UNK         0.0707 
     81 H81        27.8685  -40.9004  -58.2452 H         1 UNK         0.1034 
     82 H82        28.7435  -42.3777  -57.9641 H         1 UNK         0.1034 
     83 H83        25.7826  -42.2467  -58.7626 H         1 UNK         0.0482 
     84 H84        27.2475  -44.4041  -60.8789 H         1 UNK         0.3460 
     85 H85        27.5474  -43.2685  -62.1703 H         1 UNK         0.3460 
     86 H86        27.5220  -44.6737  -58.7944 H         1 UNK         0.2989 
     87 H87        25.2816  -46.4441  -56.7725 H         1 UNK         0.0559 
     88 H88        24.2610  -46.9371  -58.9811 H         1 UNK         0.0848 
     89 H89        25.3575  -48.2205  -58.4952 H         1 UNK         0.0848 
     90 H90        25.8509  -47.0520  -59.7198 H         1 UNK         0.0848 
     91 H91        27.3482  -46.9753  -56.3469 H         1 UNK         0.3144 
     92 H92        30.2704  -47.6120  -58.2817 H         1 UNK         0.0727 
     93 H93        29.7413  -46.1042  -55.6619 H         1 UNK         0.0790 
     94 H94        30.5759  -45.4481  -57.0606 H         1 UNK         0.0790 
     95 H95        31.2758  -46.7891  -56.1768 H         1 UNK         0.0790 
     96 H96        29.4306  -48.5851  -55.7332 H         1 UNK         0.3215 
     97 H97        27.5979  -51.4256  -56.8937 H         1 UNK         0.0863 
     98 H98        29.2187  -52.5253  -55.3034 H         1 UNK         0.0808 
     99 H99        30.3532  -51.2024  -55.5716 H         1 UNK         0.0808 
    100 H100       29.8985  -52.2509  -56.8993 H         1 UNK         0.0808 
    101 H101       28.3450  -50.1307  -54.3625 H         1 UNK         0.3118 
    102 H102       25.2939  -48.4131  -54.0005 H         1 UNK         0.0546 
    103 H103       25.9786  -51.0434  -52.5771 H         1 UNK         0.0828 
    104 H104       24.4682  -50.6932  -53.4049 H         1 UNK         0.0828 
    105 H105       24.9025  -49.7845  -51.9681 H         1 UNK         0.0828 
    106 H106       27.3837  -49.0503  -52.1415 H         1 UNK         0.3005 
    107 H107       29.6315  -46.4664  -53.0904 H         1 UNK         0.1257 
    108 H108       27.9436  -46.8216  -50.5517 H         1 UNK         0.0775 
    109 H109       27.7617  -45.4504  -51.5943 H         1 UNK         0.0775 
    110 H110       28.6416  -43.3144  -50.5566 H         1 UNK         0.0840 
    111 H111       30.3408  -43.0351  -50.2852 H         1 UNK         0.0840 
    112 H112       29.8233  -48.3179  -50.9933 H         1 UNK         0.2987 
    113 H113       31.5149  -50.0188  -51.2309 H         1 UNK         0.0785 
    114 H114       29.1295  -50.8194  -50.8764 H         1 UNK         0.0798 
    115 H115       30.2193  -52.1791  -51.0423 H         1 UNK         0.0798 
    116 H116       29.1993  -51.7036  -52.3960 H         1 UNK         0.0798 
    117 H117       31.7018  -50.6706  -53.9624 H         1 UNK         0.3079 
    118 H118       34.4923  -52.7795  -53.5832 H         1 UNK         0.0794 
    119 H119       33.4920  -54.1878  -55.3717 H         1 UNK         0.0786 
    120 H120       31.8837  -53.5644  -54.9998 H         1 UNK         0.0786 
    121 H121       32.7436  -54.5505  -53.8263 H         1 UNK         0.0786 
    122 H122       33.2512  -51.6889  -55.9092 H         1 UNK         0.3032 
    123 H123       35.0554  -49.6269  -56.7474 H         1 UNK         0.1094 
    124 H124       32.1320  -49.0437  -55.9443 H         1 UNK         0.0794 
    125 H125       32.8656  -48.4935  -57.4428 H         1 UNK         0.0794 
    126 H126       32.6451  -50.2023  -57.1672 H         1 UNK         0.0794 
    127 H127       34.7422  -48.0681  -54.4304 H         1 UNK         0.3016 
@<TRIPOS>BOND
     1    1    2 1    
     2    1   67 1    
     3    1   68 1    
     4    1   69 1    
     5    2    3 2    
     6    2    4 am   BACKBONE|DICT|INTERRES
     7    4    5 1    
     8    4   70 1    
     9    5    6 1    
    10    5   65 1    
    11    5   71 1    
    12    6    7 1    
    13    6   72 1    
    14    6   73 1    
    15    7    8 1    
    16    8    9 1    
    17    8   74 1    
    18    8   75 1    
    19    9   10 ar   
    20    9   14 ar   
    21   10   11 ar   
    22   10   76 1    
    23   11   12 ar   
    24   11   48 1    
    25   12   13 ar   
    26   12   77 1    
    27   13   14 ar   
    28   13   15 1    
    29   14   78 1    
    30   15   16 1    
    31   15   79 1    
    32   15   80 1    
    33   16   17 1    
    34   17   18 1    
    35   17   81 1    
    36   17   82 1    
    37   18   19 1    
    38   18   22 1    
    39   18   83 1    
    40   19   20 am   BACKBONE|DICT|INTERRES
    41   19   21 2    
    42   20   84 1    
    43   20   85 1    
    44   22   23 am   BACKBONE|DICT|INTERRES
    45   22   86 1    
    46   23   24 2    
    47   23   25 1    
    48   25   26 1    
    49   25   27 1    
    50   25   87 1    
    51   26   88 1    
    52   26   89 1    
    53   26   90 1    
    54   27   28 am   BACKBONE|DICT|INTERRES
    55   27   91 1    
    56   28   29 2    
    57   28   30 1    
    58   30   31 1    
    59   30   32 1    
    60   30   92 1    
    61   31   93 1    
    62   31   94 1    
    63   31   95 1    
    64   32   33 am   BACKBONE|DICT|INTERRES
    65   32   96 1    
    66   33   34 2    
    67   33   35 1    
    68   35   36 1    
    69   35   37 1    
    70   35   97 1    
    71   36   98 1    
    72   36   99 1    
    73   36  100 1    
    74   37   38 am   BACKBONE|DICT|INTERRES
    75   37  101 1    
    76   38   39 2    
    77   38   40 1    
    78   40   41 1    
    79   40   42 1    
    80   40  102 1    
    81   41  103 1    
    82   41  104 1    
    83   41  105 1    
    84   42   43 am   BACKBONE|DICT|INTERRES
    85   42  106 1    
    86   43   44 2    
    87   43   45 1    
    88   45   46 1    
    89   45   49 1    
    90   45  107 1    
    91   46   47 1    
    92   46  108 1    
    93   46  109 1    
    94   47   48 1    
    95   48  110 1    
    96   48  111 1    
    97   49   50 am   BACKBONE|DICT|INTERRES
    98   49  112 1    
    99   50   51 2    
   100   50   52 1    
   101   52   53 1    
   102   52   54 1    
   103   52  113 1    
   104   53  114 1    
   105   53  115 1    
   106   53  116 1    
   107   54   55 am   BACKBONE|DICT|INTERRES
   108   54  117 1    
   109   55   56 2    
   110   55   57 1    
   111   57   58 1    
   112   57   59 1    
   113   57  118 1    
   114   58  119 1    
   115   58  120 1    
   116   58  121 1    
   117   59   60 am   BACKBONE|DICT|INTERRES
   118   59  122 1    
   119   60   61 2    
   120   60   62 1    
   121   62   63 1    
   122   62   64 1    
   123   62  123 1    
   124   63  124 1    
   125   63  125 1    
   126   63  126 1    
   127   64   65 am   BACKBONE|DICT|INTERRES
   128   64  127 1    
   129   65   66 2    
@<TRIPOS>SUBSTRUCTURE
     1 UNK         1 GROUP             0       ****    0 ROOT    
