@<TRIPOS>MOLECULE
3R134
127   129    1
SMALL
USER_CHARGES


@<TRIPOS>ATOM
      1 CA         28.7296  -46.8718  -49.8996 C.3       0 UNK        -0.1968 
      2 C          30.1646  -46.3681  -49.8490 C.2       0 UNK         0.4852 
      3 O          30.8048  -46.4669  -48.8014 O.2       0 UNK        -0.5359 
      4 N          30.6632  -45.8109  -50.9613 N.am      1 UNK        -0.4300 
      5 CA         31.9901  -45.1934  -51.0641 C.3       1 UNK         0.0863 
      6 C6         32.1676  -44.3988  -52.3799 C.3       11 UNK        -0.0953 
      7 S7         30.9391  -43.0763  -52.6446 S.3       11 UNK        -0.2369 
      8 C8         31.8571  -41.9463  -53.7490 C.3       11 UNK         0.0226 
      9 C9         32.0618  -42.5384  -55.1391 C.ar      11 UNK        -0.0699 
     10 C10        33.0871  -43.4615  -55.3610 C.ar      11 UNK        -0.0804 
     11 C11        33.2445  -44.0696  -56.6073 C.ar      11 UNK        -0.0871 
     12 C12        32.4090  -43.6967  -57.6633 C.ar      11 UNK        -0.1008 
     13 C13        31.4041  -42.7432  -57.4695 C.ar      11 UNK        -0.0735 
     14 C14        31.2295  -42.1727  -56.2029 C.ar      11 UNK        -0.0945 
     15 C15        30.5156  -42.3351  -58.6353 C.3       11 UNK         0.0169 
     16 S16        28.9716  -43.2974  -58.6778 S.3       11 UNK        -0.2669 
     17 C17        27.8777  -42.2461  -57.6569 C.3       11 UNK        -0.0850 
     18 CA         26.3843  -42.6669  -57.7023 C.3       10 UNK         0.0855 
     19 C          25.7171  -42.4688  -59.0943 C.2       10 UNK         0.5543 
     20 N          25.0037  -43.4486  -59.6421 N.am      10 UNK        -0.7343 
     21 O          25.8244  -41.3936  -59.6791 O.2       10 UNK        -0.5027 
     22 N          26.1835  -44.0094  -57.1514 N.am      10 UNK        -0.4495 
     23 C          25.9518  -44.3203  -55.8763 C.2       10 UNK         0.4903 
     24 O          25.8980  -43.4889  -54.9695 O.2       10 UNK        -0.4860 
     25 CA         25.7490  -45.8087  -55.5361 C.3       9 UNK         0.0227 
     26 CB         24.2586  -46.1251  -55.3083 C.3       9 UNK        -0.1964 
     27 N          26.3495  -46.7642  -56.4792 N.am      9 UNK        -0.4231 
     28 C          26.0363  -47.0289  -57.7569 C.2       9 UNK         0.5014 
     29 O          25.2088  -46.3907  -58.4104 O.2       9 UNK        -0.5270 
     30 CA         26.7955  -48.1896  -58.4267 C.3       8 UNK         0.0284 
     31 CB         28.0802  -47.6744  -59.0956 C.3       8 UNK        -0.1977 
     32 N          27.1261  -49.2692  -57.4894 N.am      8 UNK        -0.4342 
     33 C          26.2224  -50.0546  -56.8830 C.2       8 UNK         0.5039 
     34 O          25.0168  -50.0348  -57.1337 O.2       8 UNK        -0.5547 
     35 CA         26.7448  -50.9977  -55.7875 C.3       7 UNK         0.0281 
     36 CB         27.2715  -52.3118  -56.3880 C.3       7 UNK        -0.1963 
     37 N          27.7846  -50.3585  -54.9764 N.am      7 UNK        -0.4444 
     38 C          27.5384  -49.4625  -54.0092 C.2       7 UNK         0.5104 
     39 O          26.4077  -49.1330  -53.6522 O.2       7 UNK        -0.5100 
     40 CA         28.7556  -48.8122  -53.3260 C.3       6 UNK         0.0396 
     41 CB         29.1684  -49.6312  -52.0933 C.3       6 UNK        -0.1801 
     42 N          29.9132  -48.6520  -54.2098 N.am      6 UNK        -0.4747 
     43 C          29.9475  -47.8667  -55.2957 C.2       6 UNK         0.5012 
     44 O          29.0139  -47.1399  -55.6288 O.2       6 UNK        -0.5003 
     45 CA         31.1899  -47.9625  -56.2048 C.3       5 UNK         0.0782 
     46 C46        32.2964  -46.9747  -55.7726 C.3       11 UNK        -0.0868 
     47 S47        33.5538  -46.8039  -57.0904 S.3       11 UNK        -0.2515 
     48 C48        34.2906  -45.1610  -56.7863 C.3       11 UNK         0.0199 
     49 N          31.6929  -49.3355  -56.3105 N.am      5 UNK        -0.4607 
     50 C          31.0150  -50.3725  -56.8127 C.2       4 UNK         0.5031 
     51 O          29.8780  -50.2696  -57.2734 O.2       4 UNK        -0.5119 
     52 CA         31.6748  -51.7632  -56.7415 C.3       4 UNK         0.0263 
     53 CB         32.5972  -52.0061  -57.9518 C.3       4 UNK        -0.1967 
     54 N          32.3486  -52.0402  -55.4605 N.am      4 UNK        -0.4237 
     55 C          33.4550  -51.4726  -54.9587 C.2       3 UNK         0.4908 
     56 O          34.1603  -50.6664  -55.5697 O.2       3 UNK        -0.5102 
     57 CA         33.8054  -51.8285  -53.5018 C.3       3 UNK         0.0241 
     58 CB         34.9396  -52.8649  -53.4567 C.3       3 UNK        -0.1971 
     59 N          34.1958  -50.6434  -52.7280 N.am      3 UNK        -0.4139 
     60 C          33.4282  -49.5575  -52.5588 C.2       2 UNK         0.5016 
     61 O          32.2710  -49.4680  -52.9782 O.2       2 UNK        -0.5319 
     62 CA         34.0603  -48.3612  -51.8339 C.3       2 UNK         0.0286 
     63 CB         35.2485  -47.8001  -52.6471 C.3       2 UNK        -0.1963 
     64 N          33.0345  -47.3315  -51.6638 N.am      2 UNK        -0.4790 
     65 C          33.1406  -46.2140  -50.9346 C.2       1 UNK         0.5024 
     66 O          34.1062  -45.9546  -50.2150 O.2       1 UNK        -0.4888 
     67 H67        28.2778  -46.7276  -50.8801 H         1 UNK         0.0892 
     68 H68        28.6933  -47.9327  -49.6555 H         1 UNK         0.0892 
     69 H69        28.1224  -46.3373  -49.1696 H         1 UNK         0.0892 
     70 H70        30.0826  -45.7299  -51.7834 H         1 UNK         0.3107 
     71 H71        32.0865  -44.4908  -50.2332 H         1 UNK         0.0773 
     72 H72        33.1583  -43.9407  -52.3868 H         1 UNK         0.0680 
     73 H73        32.1241  -45.0706  -53.2388 H         1 UNK         0.0680 
     74 H74        32.8204  -41.6965  -53.3018 H         1 UNK         0.0650 
     75 H75        31.3052  -41.0079  -53.8207 H         1 UNK         0.0650 
     76 H76        33.7459  -43.7383  -54.5514 H         1 UNK         0.1397 
     77 H77        32.5307  -44.1639  -58.6313 H         1 UNK         0.1363 
     78 H78        30.4440  -41.4470  -56.0447 H         1 UNK         0.1355 
     79 H79        31.0456  -42.4927  -59.5760 H         1 UNK         0.0707 
     80 H80        30.2987  -41.2668  -58.5914 H         1 UNK         0.0707 
     81 H81        28.2317  -42.2803  -56.6258 H         1 UNK         0.1034 
     82 H82        27.9806  -41.2063  -57.9725 H         1 UNK         0.1034 
     83 H83        25.8415  -41.9710  -57.0600 H         1 UNK         0.0482 
     84 H84        24.8826  -44.3399  -59.1806 H         1 UNK         0.3460 
     85 H85        24.5735  -43.2920  -60.5399 H         1 UNK         0.3460 
     86 H86        26.1624  -44.7639  -57.8268 H         1 UNK         0.2989 
     87 H87        26.2684  -45.9775  -54.5914 H         1 UNK         0.0559 
     88 H88        23.8385  -45.4862  -54.5305 H         1 UNK         0.0848 
     89 H89        24.1196  -47.1584  -54.9892 H         1 UNK         0.0848 
     90 H90        23.6664  -45.9692  -56.2105 H         1 UNK         0.0848 
     91 H91        27.1705  -47.2384  -56.1117 H         1 UNK         0.3144 
     92 H92        26.1484  -48.6062  -59.2013 H         1 UNK         0.0727 
     93 H93        28.7521  -47.2066  -58.3760 H         1 UNK         0.0790 
     94 H94        27.8490  -46.9255  -59.8545 H         1 UNK         0.0790 
     95 H95        28.6239  -48.4804  -59.5890 H         1 UNK         0.0790 
     96 H96        28.1101  -49.4228  -57.2865 H         1 UNK         0.3215 
     97 H97        25.9036  -51.2452  -55.1358 H         1 UNK         0.0863 
     98 H98        27.6248  -52.9900  -55.6112 H         1 UNK         0.0808 
     99 H99        28.0896  -52.1472  -57.0886 H         1 UNK         0.0808 
    100 H100       26.4812  -52.8294  -56.9333 H         1 UNK         0.0808 
    101 H101       28.7443  -50.5353  -55.2368 H         1 UNK         0.3118 
    102 H102       28.4518  -47.8176  -52.9956 H         1 UNK         0.0546 
    103 H103       29.5242  -50.6243  -52.3706 H         1 UNK         0.0828 
    104 H104       28.3282  -49.7645  -51.4106 H         1 UNK         0.0828 
    105 H105       29.9653  -49.1390  -51.5365 H         1 UNK         0.0828 
    106 H106       30.7581  -49.1596  -53.9487 H         1 UNK         0.3005 
    107 H107       30.8525  -47.6705  -57.2018 H         1 UNK         0.1257 
    108 H108       31.8543  -46.0008  -55.5628 H         1 UNK         0.0775 
    109 H109       32.7796  -47.3016  -54.8508 H         1 UNK         0.0775 
    110 H110       34.9372  -45.2276  -55.9098 H         1 UNK         0.0840 
    111 H111       34.9398  -44.9033  -57.6241 H         1 UNK         0.0840 
    112 H112       32.6330  -49.5076  -55.9671 H         1 UNK         0.2987 
    113 H113       30.8635  -52.4903  -56.8054 H         1 UNK         0.0785 
    114 H114       32.0389  -51.9221  -58.8851 H         1 UNK         0.0798 
    115 H115       33.0338  -53.0044  -57.9238 H         1 UNK         0.0798 
    116 H116       33.4124  -51.2838  -58.0005 H         1 UNK         0.0798 
    117 H117       31.8479  -52.6791  -54.8577 H         1 UNK         0.3079 
    118 H118       32.9234  -52.2557  -53.0199 H         1 UNK         0.0794 
    119 H119       35.1650  -53.1645  -52.4330 H         1 UNK         0.0786 
    120 H120       35.8564  -52.4782  -53.9042 H         1 UNK         0.0786 
    121 H121       34.6660  -53.7679  -54.0043 H         1 UNK         0.0786 
    122 H122       35.1428  -50.6276  -52.3791 H         1 UNK         0.3032 
    123 H123       34.3995  -48.6920  -50.8500 H         1 UNK         0.1094 
    124 H124       35.7205  -46.9559  -52.1450 H         1 UNK         0.0794 
    125 H125       36.0256  -48.5515  -52.7901 H         1 UNK         0.0794 
    126 H126       34.9358  -47.4653  -53.6369 H         1 UNK         0.0794 
    127 H127       32.1827  -47.5232  -52.1771 H         1 UNK         0.3016 
@<TRIPOS>BOND
     1    1    2 1    
     2    1   67 1    
     3    1   68 1    
     4    1   69 1    
     5    2    3 2    
     6    2    4 am   BACKBONE|DICT|INTERRES
     7    4    5 1    
     8    4   70 1    
     9    5    6 1    
    10    5   65 1    
    11    5   71 1    
    12    6    7 1    
    13    6   72 1    
    14    6   73 1    
    15    7    8 1    
    16    8    9 1    
    17    8   74 1    
    18    8   75 1    
    19    9   10 ar   
    20    9   14 ar   
    21   10   11 ar   
    22   10   76 1    
    23   11   12 ar   
    24   11   48 1    
    25   12   13 ar   
    26   12   77 1    
    27   13   14 ar   
    28   13   15 1    
    29   14   78 1    
    30   15   16 1    
    31   15   79 1    
    32   15   80 1    
    33   16   17 1    
    34   17   18 1    
    35   17   81 1    
    36   17   82 1    
    37   18   19 1    
    38   18   22 1    
    39   18   83 1    
    40   19   20 am   BACKBONE|DICT|INTERRES
    41   19   21 2    
    42   20   84 1    
    43   20   85 1    
    44   22   23 am   BACKBONE|DICT|INTERRES
    45   22   86 1    
    46   23   24 2    
    47   23   25 1    
    48   25   26 1    
    49   25   27 1    
    50   25   87 1    
    51   26   88 1    
    52   26   89 1    
    53   26   90 1    
    54   27   28 am   BACKBONE|DICT|INTERRES
    55   27   91 1    
    56   28   29 2    
    57   28   30 1    
    58   30   31 1    
    59   30   32 1    
    60   30   92 1    
    61   31   93 1    
    62   31   94 1    
    63   31   95 1    
    64   32   33 am   BACKBONE|DICT|INTERRES
    65   32   96 1    
    66   33   34 2    
    67   33   35 1    
    68   35   36 1    
    69   35   37 1    
    70   35   97 1    
    71   36   98 1    
    72   36   99 1    
    73   36  100 1    
    74   37   38 am   BACKBONE|DICT|INTERRES
    75   37  101 1    
    76   38   39 2    
    77   38   40 1    
    78   40   41 1    
    79   40   42 1    
    80   40  102 1    
    81   41  103 1    
    82   41  104 1    
    83   41  105 1    
    84   42   43 am   BACKBONE|DICT|INTERRES
    85   42  106 1    
    86   43   44 2    
    87   43   45 1    
    88   45   46 1    
    89   45   49 1    
    90   45  107 1    
    91   46   47 1    
    92   46  108 1    
    93   46  109 1    
    94   47   48 1    
    95   48  110 1    
    96   48  111 1    
    97   49   50 am   BACKBONE|DICT|INTERRES
    98   49  112 1    
    99   50   51 2    
   100   50   52 1    
   101   52   53 1    
   102   52   54 1    
   103   52  113 1    
   104   53  114 1    
   105   53  115 1    
   106   53  116 1    
   107   54   55 am   BACKBONE|DICT|INTERRES
   108   54  117 1    
   109   55   56 2    
   110   55   57 1    
   111   57   58 1    
   112   57   59 1    
   113   57  118 1    
   114   58  119 1    
   115   58  120 1    
   116   58  121 1    
   117   59   60 am   BACKBONE|DICT|INTERRES
   118   59  122 1    
   119   60   61 2    
   120   60   62 1    
   121   62   63 1    
   122   62   64 1    
   123   62  123 1    
   124   63  124 1    
   125   63  125 1    
   126   63  126 1    
   127   64   65 am   BACKBONE|DICT|INTERRES
   128   64  127 1    
   129   65   66 2    
@<TRIPOS>SUBSTRUCTURE
     1 UNK         1 GROUP             0       ****    0 ROOT    
