@<TRIPOS>MOLECULE
3R134
127   129    1
SMALL
USER_CHARGES


@<TRIPOS>ATOM
      1 CA         31.9815  -49.1983  -57.4668 C.3       0 UNK        -0.1968 
      2 C          33.0064  -48.2926  -56.8027 C.2       0 UNK         0.4852 
      3 O          34.1487  -48.2285  -57.2590 O.2       0 UNK        -0.5359 
      4 N          32.6131  -47.6217  -55.7109 N.am      1 UNK        -0.4300 
      5 CA         33.4179  -46.7513  -54.8434 C.3       1 UNK         0.0863 
      6 C6         34.1056  -45.5749  -55.5900 C.3       11 UNK        -0.0953 
      7 S7         34.8219  -44.3360  -54.4562 S.3       11 UNK        -0.2369 
      8 C8         34.0736  -42.7836  -55.0442 C.3       11 UNK         0.0226 
      9 C9         32.5855  -42.6702  -54.7344 C.ar      11 UNK        -0.0699 
     10 C10        32.1111  -42.8427  -53.4301 C.ar      11 UNK        -0.0804 
     11 C11        30.7527  -42.6847  -53.1388 C.ar      11 UNK        -0.0871 
     12 C12        29.8651  -42.3344  -54.1613 C.ar      11 UNK        -0.1008 
     13 C13        30.3294  -42.1455  -55.4667 C.ar      11 UNK        -0.0735 
     14 C14        31.6868  -42.3273  -55.7483 C.ar      11 UNK        -0.0945 
     15 C15        29.3812  -41.7093  -56.5734 C.3       11 UNK         0.0169 
     16 S16        28.6098  -43.1387  -57.3854 S.3       11 UNK        -0.2669 
     17 C17        27.1028  -43.3795  -56.3747 C.3       11 UNK        -0.0850 
     18 CA         25.7981  -43.3361  -57.2138 C.3       10 UNK         0.0855 
     19 C          25.4384  -41.8961  -57.6850 C.2       10 UNK         0.5543 
     20 N          25.3102  -41.6307  -58.9793 N.am      10 UNK        -0.7343 
     21 O          25.2608  -41.0068  -56.8562 O.2       10 UNK        -0.5027 
     22 N          25.8384  -44.3578  -58.2680 N.am      10 UNK        -0.4495 
     23 C          24.7873  -44.9245  -58.8711 C.2       10 UNK         0.4903 
     24 O          23.6167  -44.6081  -58.6592 O.2       10 UNK        -0.4860 
     25 CA         25.0999  -46.0557  -59.8728 C.3       9 UNK         0.0227 
     26 CB         25.0973  -45.5136  -61.3114 C.3       9 UNK        -0.1964 
     27 N          26.3786  -46.7324  -59.6089 N.am      9 UNK        -0.4231 
     28 C          26.6396  -47.4574  -58.5112 C.2       9 UNK         0.5014 
     29 O          25.7960  -47.7084  -57.6468 O.2       9 UNK        -0.5270 
     30 CA         28.0909  -47.9392  -58.3425 C.3       8 UNK         0.0284 
     31 CB         29.0394  -46.7472  -58.1160 C.3       8 UNK        -0.1977 
     32 N          28.1848  -48.8272  -57.1858 N.am      8 UNK        -0.4342 
     33 C          28.1563  -50.1657  -57.2329 C.2       8 UNK         0.5039 
     34 O          28.1816  -50.8135  -58.2804 O.2       8 UNK        -0.5547 
     35 CA         28.0877  -50.9199  -55.8906 C.3       7 UNK         0.0281 
     36 CB         29.4375  -51.5768  -55.5551 C.3       7 UNK        -0.1963 
     37 N          27.6718  -50.0555  -54.7816 N.am      7 UNK        -0.4444 
     38 C          26.3971  -49.7145  -54.5369 C.2       7 UNK         0.5104 
     39 O          25.4401  -50.1835  -55.1535 O.2       7 UNK        -0.5100 
     40 CA         26.1261  -48.6889  -53.4180 C.3       6 UNK         0.0396 
     41 CB         25.4620  -49.3756  -52.2130 C.3       6 UNK        -0.1801 
     42 N          27.3130  -47.9665  -52.9518 N.am      6 UNK        -0.4747 
     43 C          28.0022  -47.0517  -53.6513 C.2       6 UNK         0.5012 
     44 O          27.7272  -46.7222  -54.8033 O.2       6 UNK        -0.5003 
     45 CA         29.2545  -46.4736  -52.9577 C.3       5 UNK         0.0782 
     46 C46        28.8621  -45.2959  -52.0323 C.3       11 UNK        -0.0868 
     47 S47        30.2956  -44.5805  -51.1581 S.3       11 UNK        -0.2515 
     48 C48        30.2606  -42.8454  -51.7078 C.3       11 UNK         0.0199 
     49 N          29.9893  -47.5298  -52.2439 N.am      5 UNK        -0.4607 
     50 C          30.5582  -48.5796  -52.8451 C.2       4 UNK         0.5031 
     51 O          30.5894  -48.7235  -54.0712 O.2       4 UNK        -0.5119 
     52 CA         31.1187  -49.6808  -51.9417 C.3       4 UNK         0.0263 
     53 CB         29.9681  -50.5754  -51.4344 C.3       4 UNK        -0.1967 
     54 N          32.0687  -50.4516  -52.7365 N.am      4 UNK        -0.4237 
     55 C          32.8764  -51.4316  -52.3164 C.2       3 UNK         0.4908 
     56 O          32.9140  -51.8573  -51.1617 O.2       3 UNK        -0.5102 
     57 CA         33.8304  -52.0086  -53.3741 C.3       3 UNK         0.0241 
     58 CB         33.0618  -52.7351  -54.4926 C.3       3 UNK        -0.1971 
     59 N          34.6629  -50.9511  -53.9490 N.am      3 UNK        -0.4139 
     60 C          35.7063  -50.3858  -53.3250 C.2       2 UNK         0.5016 
     61 O          36.1682  -50.7808  -52.2538 O.2       2 UNK        -0.5319 
     62 CA         36.3255  -49.1535  -54.0047 C.3       2 UNK         0.0286 
     63 CB         37.3711  -49.5737  -55.0498 C.3       2 UNK        -0.1963 
     64 N          35.3240  -48.2897  -54.6366 N.am      2 UNK        -0.4790 
     65 C          34.3963  -47.5768  -53.9820 C.2       1 UNK         0.5024 
     66 O          34.2771  -47.5721  -52.7566 O.2       1 UNK        -0.4888 
     67 H67        31.0137  -49.1387  -56.9723 H         1 UNK         0.0892 
     68 H68        31.8468  -48.9139  -58.5099 H         1 UNK         0.0892 
     69 H69        32.3160  -50.2348  -57.4357 H         1 UNK         0.0892 
     70 H70        31.6866  -47.8203  -55.3412 H         1 UNK         0.3107 
     71 H71        32.6977  -46.3095  -54.1517 H         1 UNK         0.0773 
     72 H72        34.9010  -45.9302  -56.2463 H         1 UNK         0.0680 
     73 H73        33.3789  -45.0845  -56.2392 H         1 UNK         0.0680 
     74 H74        34.2614  -42.6868  -56.1147 H         1 UNK         0.0650 
     75 H75        34.5889  -41.9495  -54.5665 H         1 UNK         0.0650 
     76 H76        32.8022  -43.0940  -52.6368 H         1 UNK         0.1397 
     77 H77        28.8172  -42.1897  -53.9387 H         1 UNK         0.1363 
     78 H78        32.0465  -42.1760  -56.7570 H         1 UNK         0.1355 
     79 H79        29.9298  -41.1407  -57.3258 H         1 UNK         0.0707 
     80 H80        28.6198  -41.0304  -56.1861 H         1 UNK         0.0707 
     81 H81        27.1854  -44.3501  -55.8839 H         1 UNK         0.1034 
     82 H82        27.0593  -42.6522  -55.5629 H         1 UNK         0.1034 
     83 H83        24.9870  -43.6198  -56.5403 H         1 UNK         0.0482 
     84 H84        25.4516  -42.3572  -59.6619 H         1 UNK         0.3460 
     85 H85        25.0723  -40.6966  -59.2733 H         1 UNK         0.3460 
     86 H86        26.7641  -44.6623  -58.5286 H         1 UNK         0.2989 
     87 H87        24.3039  -46.7982  -59.7863 H         1 UNK         0.0559 
     88 H88        24.1488  -45.0264  -61.5427 H         1 UNK         0.0848 
     89 H89        25.2313  -46.3147  -62.0386 H         1 UNK         0.0848 
     90 H90        25.8875  -44.7787  -61.4703 H         1 UNK         0.0848 
     91 H91        27.1176  -46.5852  -60.2819 H         1 UNK         0.3144 
     92 H92        28.3909  -48.4640  -59.2519 H         1 UNK         0.0727 
     93 H93        28.7612  -46.1743  -57.2309 H         1 UNK         0.0790 
     94 H94        29.0331  -46.0611  -58.9635 H         1 UNK         0.0790 
     95 H95        30.0692  -47.0751  -57.9842 H         1 UNK         0.0790 
     96 H96        28.0598  -48.3752  -56.2878 H         1 UNK         0.3215 
     97 H97        27.3513  -51.7183  -56.0075 H         1 UNK         0.0863 
     98 H98        30.2357  -50.8436  -55.4596 H         1 UNK         0.0808 
     99 H99        29.7343  -52.2747  -56.3391 H         1 UNK         0.0808 
    100 H100       29.3863  -52.1413  -54.6241 H         1 UNK         0.0808 
    101 H101       28.4068  -49.6148  -54.2459 H         1 UNK         0.3118 
    102 H102       25.4258  -47.9542  -53.8211 H         1 UNK         0.0546 
    103 H103       26.1198  -50.1167  -51.7571 H         1 UNK         0.0828 
    104 H104       24.5483  -49.8919  -52.5110 H         1 UNK         0.0828 
    105 H105       25.1847  -48.6527  -51.4455 H         1 UNK         0.0828 
    106 H106       27.6294  -48.1827  -52.0176 H         1 UNK         0.3005 
    107 H107       29.9067  -46.0839  -53.7434 H         1 UNK         0.1257 
    108 H108       28.1435  -45.6197  -51.2768 H         1 UNK         0.0775 
    109 H109       28.3621  -44.5154  -52.6089 H         1 UNK         0.0775 
    110 H110       29.2532  -42.4432  -51.5885 H         1 UNK         0.0840 
    111 H111       30.8986  -42.2576  -51.0462 H         1 UNK         0.0840 
    112 H112       30.0221  -47.4505  -51.2375 H         1 UNK         0.2987 
    113 H113       31.6464  -49.2237  -51.1024 H         1 UNK         0.0785 
    114 H114       29.2288  -49.9946  -50.8819 H         1 UNK         0.0798 
    115 H115       30.3275  -51.3499  -50.7573 H         1 UNK         0.0798 
    116 H116       29.4486  -51.0690  -52.2566 H         1 UNK         0.0798 
    117 H117       32.0998  -50.1581  -53.7037 H         1 UNK         0.3079 
    118 H118       34.4775  -52.7379  -52.8811 H         1 UNK         0.0794 
    119 H119       33.7463  -53.2367  -55.1770 H         1 UNK         0.0786 
    120 H120       32.4451  -52.0551  -55.0803 H         1 UNK         0.0786 
    121 H121       32.4023  -53.4996  -54.0794 H         1 UNK         0.0786 
    122 H122       34.3766  -50.5632  -54.8351 H         1 UNK         0.3032 
    123 H123       36.8292  -48.5716  -53.2292 H         1 UNK         0.1094 
    124 H124       36.9218  -50.1334  -55.8712 H         1 UNK         0.0794 
    125 H125       37.8782  -48.7064  -55.4731 H         1 UNK         0.0794 
    126 H126       38.1371  -50.2086  -54.6020 H         1 UNK         0.0794 
    127 H127       35.2980  -48.2610  -55.6527 H         1 UNK         0.3016 
@<TRIPOS>BOND
     1    1    2 1    
     2    1   67 1    
     3    1   68 1    
     4    1   69 1    
     5    2    3 2    
     6    2    4 am   BACKBONE|DICT|INTERRES
     7    4    5 1    
     8    4   70 1    
     9    5    6 1    
    10    5   65 1    
    11    5   71 1    
    12    6    7 1    
    13    6   72 1    
    14    6   73 1    
    15    7    8 1    
    16    8    9 1    
    17    8   74 1    
    18    8   75 1    
    19    9   10 ar   
    20    9   14 ar   
    21   10   11 ar   
    22   10   76 1    
    23   11   12 ar   
    24   11   48 1    
    25   12   13 ar   
    26   12   77 1    
    27   13   14 ar   
    28   13   15 1    
    29   14   78 1    
    30   15   16 1    
    31   15   79 1    
    32   15   80 1    
    33   16   17 1    
    34   17   18 1    
    35   17   81 1    
    36   17   82 1    
    37   18   19 1    
    38   18   22 1    
    39   18   83 1    
    40   19   20 am   BACKBONE|DICT|INTERRES
    41   19   21 2    
    42   20   84 1    
    43   20   85 1    
    44   22   23 am   BACKBONE|DICT|INTERRES
    45   22   86 1    
    46   23   24 2    
    47   23   25 1    
    48   25   26 1    
    49   25   27 1    
    50   25   87 1    
    51   26   88 1    
    52   26   89 1    
    53   26   90 1    
    54   27   28 am   BACKBONE|DICT|INTERRES
    55   27   91 1    
    56   28   29 2    
    57   28   30 1    
    58   30   31 1    
    59   30   32 1    
    60   30   92 1    
    61   31   93 1    
    62   31   94 1    
    63   31   95 1    
    64   32   33 am   BACKBONE|DICT|INTERRES
    65   32   96 1    
    66   33   34 2    
    67   33   35 1    
    68   35   36 1    
    69   35   37 1    
    70   35   97 1    
    71   36   98 1    
    72   36   99 1    
    73   36  100 1    
    74   37   38 am   BACKBONE|DICT|INTERRES
    75   37  101 1    
    76   38   39 2    
    77   38   40 1    
    78   40   41 1    
    79   40   42 1    
    80   40  102 1    
    81   41  103 1    
    82   41  104 1    
    83   41  105 1    
    84   42   43 am   BACKBONE|DICT|INTERRES
    85   42  106 1    
    86   43   44 2    
    87   43   45 1    
    88   45   46 1    
    89   45   49 1    
    90   45  107 1    
    91   46   47 1    
    92   46  108 1    
    93   46  109 1    
    94   47   48 1    
    95   48  110 1    
    96   48  111 1    
    97   49   50 am   BACKBONE|DICT|INTERRES
    98   49  112 1    
    99   50   51 2    
   100   50   52 1    
   101   52   53 1    
   102   52   54 1    
   103   52  113 1    
   104   53  114 1    
   105   53  115 1    
   106   53  116 1    
   107   54   55 am   BACKBONE|DICT|INTERRES
   108   54  117 1    
   109   55   56 2    
   110   55   57 1    
   111   57   58 1    
   112   57   59 1    
   113   57  118 1    
   114   58  119 1    
   115   58  120 1    
   116   58  121 1    
   117   59   60 am   BACKBONE|DICT|INTERRES
   118   59  122 1    
   119   60   61 2    
   120   60   62 1    
   121   62   63 1    
   122   62   64 1    
   123   62  123 1    
   124   63  124 1    
   125   63  125 1    
   126   63  126 1    
   127   64   65 am   BACKBONE|DICT|INTERRES
   128   64  127 1    
   129   65   66 2    
@<TRIPOS>SUBSTRUCTURE
     1 UNK         1 GROUP             0       ****    0 ROOT    
