@<TRIPOS>MOLECULE
3R134
127   129    1
SMALL
USER_CHARGES


@<TRIPOS>ATOM
      1 CA         32.5426  -50.6621  -57.5839 C.3       0 UNK        -0.1968 
      2 C          32.8605  -49.8377  -56.3463 C.2       0 UNK         0.4852 
      3 O          32.8942  -50.3859  -55.2443 O.2       0 UNK        -0.5359 
      4 N          33.1165  -48.5331  -56.5273 N.am      1 UNK        -0.4300 
      5 CA         33.3731  -47.5309  -55.4788 C.3       1 UNK         0.0863 
      6 C6         33.6587  -46.1350  -56.0800 C.3       11 UNK        -0.0953 
      7 S7         32.2798  -45.5083  -57.0958 S.3       11 UNK        -0.2369 
      8 C8         32.4378  -43.7137  -56.8370 C.3       11 UNK         0.0226 
      9 C9         31.5548  -43.2181  -55.7003 C.ar      11 UNK        -0.0699 
     10 C10        32.0055  -43.2493  -54.3757 C.ar      11 UNK        -0.0804 
     11 C11        31.2004  -42.7623  -53.3408 C.ar      11 UNK        -0.0871 
     12 C12        29.9438  -42.2268  -53.6414 C.ar      11 UNK        -0.1008 
     13 C13        29.4857  -42.1833  -54.9605 C.ar      11 UNK        -0.0735 
     14 C14        30.2924  -42.6878  -55.9844 C.ar      11 UNK        -0.0945 
     15 C15        28.1441  -41.5398  -55.2814 C.3       11 UNK         0.0169 
     16 S16        26.7297  -42.6102  -54.8676 S.3       11 UNK        -0.2669 
     17 C17        26.7987  -43.8775  -56.1801 C.3       11 UNK        -0.0850 
     18 CA         25.7300  -43.6768  -57.2905 C.3       10 UNK         0.0855 
     19 C          26.2106  -42.6817  -58.3912 C.2       10 UNK         0.5543 
     20 N          26.5505  -43.1299  -59.5951 N.am      10 UNK        -0.7343 
     21 O          26.2505  -41.4766  -58.1603 O.2       10 UNK        -0.5027 
     22 N          25.2698  -44.9712  -57.8163 N.am      10 UNK        -0.4495 
     23 C          24.1603  -45.1376  -58.5529 C.2       10 UNK         0.4903 
     24 O          23.3262  -44.2476  -58.7276 O.2       10 UNK        -0.4860 
     25 CA         23.9393  -46.5188  -59.2119 C.3       9 UNK         0.0227 
     26 CB         23.1570  -46.4158  -60.5386 C.3       9 UNK        -0.1964 
     27 N          25.1717  -47.2961  -59.4030 N.am      9 UNK        -0.4231 
     28 C          26.2736  -46.9309  -60.0786 C.2       9 UNK         0.5014 
     29 O          26.3671  -45.8815  -60.7187 O.2       9 UNK        -0.5270 
     30 CA         27.4909  -47.8756  -59.9698 C.3       8 UNK         0.0284 
     31 CB         28.8257  -47.1350  -60.2045 C.3       8 UNK        -0.1977 
     32 N          27.5536  -48.6349  -58.7087 N.am      8 UNK        -0.4342 
     33 C          27.5566  -48.1319  -57.4646 C.2       8 UNK         0.5039 
     34 O          27.4300  -46.9319  -57.2049 O.2       8 UNK        -0.5547 
     35 CA         27.7093  -49.1461  -56.3258 C.3       7 UNK         0.0281 
     36 CB         29.1474  -49.6914  -56.2641 C.3       7 UNK        -0.1963 
     37 N          27.3842  -48.4878  -55.0660 N.am      7 UNK        -0.4444 
     38 C          26.9061  -49.0728  -53.9651 C.2       7 UNK         0.5104 
     39 O          26.6650  -50.2787  -53.8821 O.2       7 UNK        -0.5100 
     40 CA         26.6933  -48.1514  -52.7456 C.3       6 UNK         0.0396 
     41 CB         25.9926  -48.8676  -51.5763 C.3       6 UNK        -0.1801 
     42 N          27.9700  -47.6121  -52.2725 N.am      6 UNK        -0.4747 
     43 C          28.6511  -46.6117  -52.8507 C.2       6 UNK         0.5012 
     44 O          28.2051  -45.9487  -53.7859 O.2       6 UNK        -0.5003 
     45 CA         30.0772  -46.3256  -52.3344 C.3       5 UNK         0.0782 
     46 C46        30.0951  -45.0833  -51.4127 C.3       11 UNK        -0.0868 
     47 S47        31.7980  -44.4627  -51.2007 S.3       11 UNK        -0.2515 
     48 C48        31.6953  -42.7811  -51.8993 C.3       11 UNK         0.0199 
     49 N          30.6910  -47.4893  -51.6761 N.am      5 UNK        -0.4607 
     50 C          31.0345  -48.6240  -52.2963 C.2       4 UNK         0.5031 
     51 O          30.8731  -48.8231  -53.4984 O.2       4 UNK        -0.5119 
     52 CA         31.5874  -49.7457  -51.4156 C.3       4 UNK         0.0263 
     53 CB         30.4396  -50.6541  -50.9310 C.3       4 UNK        -0.1967 
     54 N          32.5663  -50.5173  -52.1786 N.am      4 UNK        -0.4237 
     55 C          33.4705  -51.3477  -51.6419 C.2       3 UNK         0.4908 
     56 O          33.5573  -51.5819  -50.4357 O.2       3 UNK        -0.5102 
     57 CA         34.4648  -52.0120  -52.6032 C.3       3 UNK         0.0241 
     58 CB         33.7865  -53.1166  -53.4318 C.3       3 UNK        -0.1971 
     59 N          35.0653  -51.0140  -53.4873 N.am      3 UNK        -0.4139 
     60 C          36.1662  -50.3080  -53.1897 C.2       2 UNK         0.5016 
     61 O          36.8435  -50.4920  -52.1773 O.2       2 UNK        -0.5319 
     62 CA         36.6001  -49.2105  -54.1802 C.3       2 UNK         0.0286 
     63 CB         37.6917  -49.7400  -55.1243 C.3       2 UNK        -0.1963 
     64 N          35.4977  -48.6707  -54.9789 N.am      2 UNK        -0.4790 
     65 C          34.5011  -47.9138  -54.4958 C.2       1 UNK         0.5024 
     66 O          34.4432  -47.5294  -53.3276 O.2       1 UNK        -0.4888 
     67 H67        33.3867  -51.3046  -57.8323 H         1 UNK         0.0892 
     68 H68        31.6768  -51.2970  -57.3986 H         1 UNK         0.0892 
     69 H69        32.3225  -50.0335  -58.4465 H         1 UNK         0.0892 
     70 H70        33.0711  -48.1547  -57.4627 H         1 UNK         0.3107 
     71 H71        32.4593  -47.4519  -54.8907 H         1 UNK         0.0773 
     72 H72        33.8586  -45.4194  -55.2817 H         1 UNK         0.0680 
     73 H73        34.5570  -46.1574  -56.6999 H         1 UNK         0.0680 
     74 H74        32.1632  -43.2094  -57.7647 H         1 UNK         0.0650 
     75 H75        33.4799  -43.4481  -56.6526 H         1 UNK         0.0650 
     76 H76        32.9839  -43.6456  -54.1446 H         1 UNK         0.1397 
     77 H77        29.3198  -41.8335  -52.8503 H         1 UNK         0.1363 
     78 H78        29.9459  -42.6494  -57.0082 H         1 UNK         0.1355 
     79 H79        28.0985  -41.2533  -56.3320 H         1 UNK         0.0707 
     80 H80        28.0510  -40.6116  -54.7159 H         1 UNK         0.0707 
     81 H81        27.8035  -43.9619  -56.5968 H         1 UNK         0.1034 
     82 H82        26.6280  -44.8280  -55.6724 H         1 UNK         0.1034 
     83 H83        24.8549  -43.2163  -56.8276 H         1 UNK         0.0482 
     84 H84        26.4839  -44.1153  -59.8296 H         1 UNK         0.3460 
     85 H85        26.8460  -42.4707  -60.2969 H         1 UNK         0.3460 
     86 H86        25.9250  -45.7422  -57.7191 H         1 UNK         0.2989 
     87 H87        23.3280  -47.0893  -58.5115 H         1 UNK         0.0559 
     88 H88        22.1741  -45.9695  -60.3830 H         1 UNK         0.0848 
     89 H89        22.9961  -47.3980  -60.9828 H         1 UNK         0.0848 
     90 H90        23.6813  -45.7990  -61.2693 H         1 UNK         0.0848 
     91 H91        25.2138  -48.1711  -58.8996 H         1 UNK         0.3144 
     92 H92        27.3735  -48.6097  -60.7683 H         1 UNK         0.0727 
     93 H93        28.9819  -46.3445  -59.4690 H         1 UNK         0.0790 
     94 H94        28.8518  -46.6714  -61.1914 H         1 UNK         0.0790 
     95 H95        29.6740  -47.8169  -60.1469 H         1 UNK         0.0790 
     96 H96        27.6352  -49.6375  -58.8140 H         1 UNK         0.3215 
     97 H97        27.0084  -49.9658  -56.4978 H         1 UNK         0.0863 
     98 H98        29.2739  -50.3947  -55.4405 H         1 UNK         0.0808 
     99 H99        29.8719  -48.8878  -56.1230 H         1 UNK         0.0808 
    100 H100       29.4129  -50.2167  -57.1815 H         1 UNK         0.0808 
    101 H101       27.5452  -47.4833  -55.0604 H         1 UNK         0.3118 
    102 H102       26.0523  -47.3260  -53.0631 H         1 UNK         0.0546 
    103 H103       26.5844  -49.7023  -51.1982 H         1 UNK         0.0828 
    104 H104       25.0265  -49.2674  -51.8871 H         1 UNK         0.0828 
    105 H105       25.8067  -48.1850  -50.7470 H         1 UNK         0.0828 
    106 H106       28.4275  -48.1244  -51.5333 H         1 UNK         0.3005 
    107 H107       30.6693  -46.0992  -53.2253 H         1 UNK         0.1257 
    108 H108       29.4664  -44.2863  -51.8125 H         1 UNK         0.0775 
    109 H109       29.6804  -45.3212  -50.4316 H         1 UNK         0.0775 
    110 H110       31.0510  -42.1743  -51.2610 H         1 UNK         0.0840 
    111 H111       32.6834  -42.3209  -51.8541 H         1 UNK         0.0840 
    112 H112       30.8637  -47.3966  -50.6854 H         1 UNK         0.2987 
    113 H113       32.0898  -49.2988  -50.5548 H         1 UNK         0.0785 
    114 H114       29.6965  -50.0848  -50.3717 H         1 UNK         0.0798 
    115 H115       30.8007  -51.4424  -50.2707 H         1 UNK         0.0798 
    116 H116       29.9255  -51.1288  -51.7682 H         1 UNK         0.0798 
    117 H117       32.5479  -50.3620  -53.1851 H         1 UNK         0.3079 
    118 H118       35.2477  -52.4841  -52.0053 H         1 UNK         0.0794 
    119 H119       34.4983  -53.6036  -54.0983 H         1 UNK         0.0786 
    120 H120       32.9685  -52.7315  -54.0410 H         1 UNK         0.0786 
    121 H121       33.3708  -53.8877  -52.7819 H         1 UNK         0.0786 
    122 H122       34.5175  -50.7546  -54.3037 H         1 UNK         0.3032 
    123 H123       37.0226  -48.3933  -53.5907 H         1 UNK         0.1094 
    124 H124       37.3241  -50.5526  -55.7523 H         1 UNK         0.0794 
    125 H125       38.0687  -48.9528  -55.7775 H         1 UNK         0.0794 
    126 H126       38.5426  -50.1244  -54.5597 H         1 UNK         0.0794 
    127 H127       35.4633  -48.9385  -55.9522 H         1 UNK         0.3016 
@<TRIPOS>BOND
     1    1    2 1    
     2    1   67 1    
     3    1   68 1    
     4    1   69 1    
     5    2    3 2    
     6    2    4 am   BACKBONE|DICT|INTERRES
     7    4    5 1    
     8    4   70 1    
     9    5    6 1    
    10    5   65 1    
    11    5   71 1    
    12    6    7 1    
    13    6   72 1    
    14    6   73 1    
    15    7    8 1    
    16    8    9 1    
    17    8   74 1    
    18    8   75 1    
    19    9   10 ar   
    20    9   14 ar   
    21   10   11 ar   
    22   10   76 1    
    23   11   12 ar   
    24   11   48 1    
    25   12   13 ar   
    26   12   77 1    
    27   13   14 ar   
    28   13   15 1    
    29   14   78 1    
    30   15   16 1    
    31   15   79 1    
    32   15   80 1    
    33   16   17 1    
    34   17   18 1    
    35   17   81 1    
    36   17   82 1    
    37   18   19 1    
    38   18   22 1    
    39   18   83 1    
    40   19   20 am   BACKBONE|DICT|INTERRES
    41   19   21 2    
    42   20   84 1    
    43   20   85 1    
    44   22   23 am   BACKBONE|DICT|INTERRES
    45   22   86 1    
    46   23   24 2    
    47   23   25 1    
    48   25   26 1    
    49   25   27 1    
    50   25   87 1    
    51   26   88 1    
    52   26   89 1    
    53   26   90 1    
    54   27   28 am   BACKBONE|DICT|INTERRES
    55   27   91 1    
    56   28   29 2    
    57   28   30 1    
    58   30   31 1    
    59   30   32 1    
    60   30   92 1    
    61   31   93 1    
    62   31   94 1    
    63   31   95 1    
    64   32   33 am   BACKBONE|DICT|INTERRES
    65   32   96 1    
    66   33   34 2    
    67   33   35 1    
    68   35   36 1    
    69   35   37 1    
    70   35   97 1    
    71   36   98 1    
    72   36   99 1    
    73   36  100 1    
    74   37   38 am   BACKBONE|DICT|INTERRES
    75   37  101 1    
    76   38   39 2    
    77   38   40 1    
    78   40   41 1    
    79   40   42 1    
    80   40  102 1    
    81   41  103 1    
    82   41  104 1    
    83   41  105 1    
    84   42   43 am   BACKBONE|DICT|INTERRES
    85   42  106 1    
    86   43   44 2    
    87   43   45 1    
    88   45   46 1    
    89   45   49 1    
    90   45  107 1    
    91   46   47 1    
    92   46  108 1    
    93   46  109 1    
    94   47   48 1    
    95   48  110 1    
    96   48  111 1    
    97   49   50 am   BACKBONE|DICT|INTERRES
    98   49  112 1    
    99   50   51 2    
   100   50   52 1    
   101   52   53 1    
   102   52   54 1    
   103   52  113 1    
   104   53  114 1    
   105   53  115 1    
   106   53  116 1    
   107   54   55 am   BACKBONE|DICT|INTERRES
   108   54  117 1    
   109   55   56 2    
   110   55   57 1    
   111   57   58 1    
   112   57   59 1    
   113   57  118 1    
   114   58  119 1    
   115   58  120 1    
   116   58  121 1    
   117   59   60 am   BACKBONE|DICT|INTERRES
   118   59  122 1    
   119   60   61 2    
   120   60   62 1    
   121   62   63 1    
   122   62   64 1    
   123   62  123 1    
   124   63  124 1    
   125   63  125 1    
   126   63  126 1    
   127   64   65 am   BACKBONE|DICT|INTERRES
   128   64  127 1    
   129   65   66 2    
@<TRIPOS>SUBSTRUCTURE
     1 UNK         1 GROUP             0       ****    0 ROOT    
