@<TRIPOS>MOLECULE
3R134
127   129    1
SMALL
USER_CHARGES


@<TRIPOS>ATOM
      1 CA         33.3066  -46.7345  -51.8009 C.3       0 UNK        -0.1968 
      2 C          34.2604  -46.6143  -52.9744 C.2       0 UNK         0.4852 
      3 O          35.1570  -47.4449  -53.1233 O.2       0 UNK        -0.5359 
      4 N          34.0712  -45.5803  -53.8032 N.am      1 UNK        -0.4300 
      5 CA         34.8974  -45.3060  -54.9855 C.3       1 UNK         0.0863 
      6 C6         34.9023  -43.8039  -55.3560 C.3       11 UNK        -0.0953 
      7 S7         35.4481  -42.7676  -53.9545 S.3       11 UNK        -0.2369 
      8 C8         34.1285  -41.5196  -53.8476 C.3       11 UNK         0.0226 
      9 C9         32.7741  -42.1002  -53.4585 C.ar      11 UNK        -0.0699 
     10 C10        32.5038  -42.4527  -52.1302 C.ar      11 UNK        -0.0804 
     11 C11        31.2263  -42.8879  -51.7552 C.ar      11 UNK        -0.0871 
     12 C12        30.2225  -42.9661  -52.7238 C.ar      11 UNK        -0.1008 
     13 C13        30.4928  -42.6651  -54.0599 C.ar      11 UNK        -0.0735 
     14 C14        31.7677  -42.2255  -54.4215 C.ar      11 UNK        -0.0945 
     15 C15        29.3950  -42.7983  -55.1012 C.3       11 UNK         0.0169 
     16 S16        29.3760  -44.4686  -55.8222 S.3       11 UNK        -0.2669 
     17 C17        27.6446  -44.5402  -56.3887 C.3       11 UNK        -0.0850 
     18 CA         27.2203  -45.9586  -56.8662 C.3       10 UNK         0.0855 
     19 C          25.6729  -46.1120  -57.0136 C.2       10 UNK         0.5543 
     20 N          25.1652  -46.9451  -57.9149 N.am      10 UNK        -0.7343 
     21 O          24.9104  -45.4905  -56.2788 O.2       10 UNK        -0.5027 
     22 N          27.9803  -46.4477  -58.0298 N.am      10 UNK        -0.4495 
     23 C          27.9595  -45.9194  -59.2643 C.2       10 UNK         0.4903 
     24 O          27.4334  -44.8416  -59.5428 O.2       10 UNK        -0.4860 
     25 CA         28.5763  -46.7512  -60.4096 C.3       9 UNK         0.0227 
     26 CB         29.9445  -46.1909  -60.8318 C.3       9 UNK        -0.1964 
     27 N          28.6928  -48.1854  -60.1182 N.am      9 UNK        -0.4231 
     28 C          27.6567  -49.0013  -59.8763 C.2       9 UNK         0.5014 
     29 O          26.4790  -48.6421  -59.9341 O.2       9 UNK        -0.5270 
     30 CA         27.9637  -50.4439  -59.4348 C.3       8 UNK         0.0284 
     31 CB         29.4530  -50.8461  -59.5280 C.3       8 UNK        -0.1977 
     32 N          27.4284  -50.6888  -58.0891 N.am      8 UNK        -0.4342 
     33 C          27.7270  -50.0152  -56.9687 C.2       8 UNK         0.5039 
     34 O          28.6131  -49.1595  -56.8861 O.2       8 UNK        -0.5547 
     35 CA         26.9023  -50.3712  -55.7288 C.3       7 UNK         0.0281 
     36 CB         27.5122  -51.5702  -54.9839 C.3       7 UNK        -0.1963 
     37 N          26.8259  -49.2090  -54.8416 N.am      7 UNK        -0.4444 
     38 C          25.7488  -48.8955  -54.1069 C.2       7 UNK         0.5104 
     39 O          24.7479  -49.6110  -54.0396 O.2       7 UNK        -0.5100 
     40 CA         25.7896  -47.5786  -53.3103 C.3       6 UNK         0.0396 
     41 CB         24.6997  -47.4910  -52.2235 C.3       6 UNK        -0.1801 
     42 N          27.1039  -47.3704  -52.7086 N.am      6 UNK        -0.4747 
     43 C          27.7002  -46.1821  -52.5375 C.2       6 UNK         0.5012 
     44 O          27.1718  -45.1114  -52.8380 O.2       6 UNK        -0.5003 
     45 CA         29.1234  -46.1707  -51.9270 C.3       5 UNK         0.0782 
     46 C46        29.1316  -45.4415  -50.5580 C.3       11 UNK        -0.0868 
     47 S47        30.8153  -45.0203  -49.9901 S.3       11 UNK        -0.2515 
     48 C48        30.9127  -43.2231  -50.3005 C.3       11 UNK         0.0199 
     49 N          29.7397  -47.5060  -51.8551 N.am      5 UNK        -0.4607 
     50 C          30.1167  -48.1958  -52.9377 C.2       4 UNK         0.5031 
     51 O          30.0080  -47.7530  -54.0837 O.2       4 UNK        -0.5119 
     52 CA         30.6511  -49.6190  -52.7262 C.3       4 UNK         0.0263 
     53 CB         29.6180  -50.5211  -52.0215 C.3       4 UNK        -0.1967 
     54 N          30.9586  -50.1206  -54.0579 N.am      4 UNK        -0.4237 
     55 C          31.7195  -51.1605  -54.4077 C.2       3 UNK         0.4908 
     56 O          32.2071  -51.9622  -53.6108 O.2       3 UNK        -0.5102 
     57 CA         32.0050  -51.3049  -55.9147 C.3       3 UNK         0.0241 
     58 CB         31.0069  -52.2662  -56.5781 C.3       3 UNK        -0.1971 
     59 N          31.9799  -50.0045  -56.6014 N.am      3 UNK        -0.4139 
     60 C          32.9938  -49.1273  -56.5476 C.2       2 UNK         0.5016 
     61 O          34.0866  -49.4004  -56.0465 O.2       2 UNK        -0.5319 
     62 CA         32.7662  -47.7148  -57.1248 C.3       2 UNK         0.0286 
     63 CB         31.2938  -47.3859  -57.4316 C.3       2 UNK        -0.1963 
     64 N          33.2698  -46.7242  -56.1740 N.am      2 UNK        -0.4790 
     65 C          34.4941  -46.1781  -56.1941 C.2       1 UNK         0.5024 
     66 O          35.3001  -46.3418  -57.1117 O.2       1 UNK        -0.4888 
     67 H67        32.3418  -46.2944  -52.0458 H         1 UNK         0.0892 
     68 H68        33.1480  -47.7794  -51.5382 H         1 UNK         0.0892 
     69 H69        33.7108  -46.2196  -50.9298 H         1 UNK         0.0892 
     70 H70        33.3472  -44.9022  -53.6089 H         1 UNK         0.3107 
     71 H71        35.9277  -45.5789  -54.7452 H         1 UNK         0.0773 
     72 H72        33.9162  -43.4893  -55.6987 H         1 UNK         0.0680 
     73 H73        35.5841  -43.6196  -56.1883 H         1 UNK         0.0680 
     74 H74        34.0630  -40.9918  -54.8005 H         1 UNK         0.0650 
     75 H75        34.4196  -40.7708  -53.1095 H         1 UNK         0.0650 
     76 H76        33.2827  -42.3588  -51.3855 H         1 UNK         0.1397 
     77 H77        29.2242  -43.2703  -52.4438 H         1 UNK         0.1363 
     78 H78        31.9684  -41.9629  -55.4513 H         1 UNK         0.1355 
     79 H79        28.4311  -42.5797  -54.6389 H         1 UNK         0.0707 
     80 H80        29.5285  -42.0633  -55.8965 H         1 UNK         0.0707 
     81 H81        27.0219  -44.2318  -55.5468 H         1 UNK         0.1034 
     82 H82        27.4863  -43.7950  -57.1688 H         1 UNK         0.1034 
     83 H83        27.4765  -46.6451  -56.0592 H         1 UNK         0.0482 
     84 H84        25.7586  -47.4674  -58.5516 H         1 UNK         0.3460 
     85 H85        24.1643  -47.0321  -57.9869 H         1 UNK         0.3460 
     86 H86        28.4213  -47.3501  -57.8891 H         1 UNK         0.2989 
     87 H87        27.9030  -46.6526  -61.2637 H         1 UNK         0.0559 
     88 H88        30.6905  -46.2883  -60.0452 H         1 UNK         0.0848 
     89 H89        29.8710  -45.1304  -61.0769 H         1 UNK         0.0848 
     90 H90        30.3243  -46.6983  -61.7187 H         1 UNK         0.0848 
     91 H91        29.6250  -48.5649  -60.0504 H         1 UNK         0.3144 
     92 H92        27.4072  -51.0909  -60.1146 H         1 UNK         0.0727 
     93 H93        29.5801  -51.9007  -59.2850 H         1 UNK         0.0790 
     94 H94        30.0849  -50.2753  -58.8497 H         1 UNK         0.0790 
     95 H95        29.8376  -50.7103  -60.5397 H         1 UNK         0.0790 
     96 H96        26.6756  -51.3621  -58.0481 H         1 UNK         0.3215 
     97 H97        25.8973  -50.6359  -56.0655 H         1 UNK         0.0863 
     98 H98        26.9369  -51.8191  -54.0921 H         1 UNK         0.0808 
     99 H99        28.5384  -51.3742  -54.6780 H         1 UNK         0.0808 
    100 H100       27.5273  -52.4584  -55.6165 H         1 UNK         0.0808 
    101 H101       27.6123  -48.5721  -54.9060 H         1 UNK         0.3118 
    102 H102       25.6020  -46.7864  -54.0358 H         1 UNK         0.0546 
    103 H103       24.8161  -48.2749  -51.4745 H         1 UNK         0.0828 
    104 H104       23.7038  -47.5946  -52.6561 H         1 UNK         0.0828 
    105 H105       24.7265  -46.5296  -51.7107 H         1 UNK         0.0828 
    106 H106       27.6049  -48.2028  -52.4326 H         1 UNK         0.3005 
    107 H107       29.7252  -45.5892  -52.6275 H         1 UNK         0.1257 
    108 H108       28.6599  -46.0654  -49.7968 H         1 UNK         0.0775 
    109 H109       28.5387  -44.5259  -50.5903 H         1 UNK         0.0775 
    110 H110       29.9825  -42.7401  -49.9977 H         1 UNK         0.0840 
    111 H111       31.6848  -42.8083  -49.6508 H         1 UNK         0.0840 
    112 H112       29.8547  -47.9036  -50.9338 H         1 UNK         0.2987 
    113 H113       31.5722  -49.5724  -52.1430 H         1 UNK         0.0785 
    114 H114       29.9363  -51.5635  -52.0105 H         1 UNK         0.0798 
    115 H115       28.6414  -50.4765  -52.5030 H         1 UNK         0.0798 
    116 H116       29.4805  -50.2220  -50.9820 H         1 UNK         0.0798 
    117 H117       30.6293  -49.4874  -54.7798 H         1 UNK         0.3079 
    118 H118       33.0011  -51.7417  -56.0156 H         1 UNK         0.0794 
    119 H119       30.9700  -53.2194  -56.0487 H         1 UNK         0.0786 
    120 H120       31.2961  -52.4814  -57.6065 H         1 UNK         0.0786 
    121 H121       29.9968  -51.8605  -56.5909 H         1 UNK         0.0786 
    122 H122       31.0977  -49.7098  -56.9988 H         1 UNK         0.3032 
    123 H123       33.3285  -47.6563  -58.0594 H         1 UNK         0.1094 
    124 H124       31.1894  -46.3567  -57.7746 H         1 UNK         0.0794 
    125 H125       30.8959  -48.0288  -58.2148 H         1 UNK         0.0794 
    126 H126       30.6577  -47.4901  -56.5535 H         1 UNK         0.0794 
    127 H127       32.6906  -46.5529  -55.3648 H         1 UNK         0.3016 
@<TRIPOS>BOND
     1    1    2 1    
     2    1   67 1    
     3    1   68 1    
     4    1   69 1    
     5    2    3 2    
     6    2    4 am   BACKBONE|DICT|INTERRES
     7    4    5 1    
     8    4   70 1    
     9    5    6 1    
    10    5   65 1    
    11    5   71 1    
    12    6    7 1    
    13    6   72 1    
    14    6   73 1    
    15    7    8 1    
    16    8    9 1    
    17    8   74 1    
    18    8   75 1    
    19    9   10 ar   
    20    9   14 ar   
    21   10   11 ar   
    22   10   76 1    
    23   11   12 ar   
    24   11   48 1    
    25   12   13 ar   
    26   12   77 1    
    27   13   14 ar   
    28   13   15 1    
    29   14   78 1    
    30   15   16 1    
    31   15   79 1    
    32   15   80 1    
    33   16   17 1    
    34   17   18 1    
    35   17   81 1    
    36   17   82 1    
    37   18   19 1    
    38   18   22 1    
    39   18   83 1    
    40   19   20 am   BACKBONE|DICT|INTERRES
    41   19   21 2    
    42   20   84 1    
    43   20   85 1    
    44   22   23 am   BACKBONE|DICT|INTERRES
    45   22   86 1    
    46   23   24 2    
    47   23   25 1    
    48   25   26 1    
    49   25   27 1    
    50   25   87 1    
    51   26   88 1    
    52   26   89 1    
    53   26   90 1    
    54   27   28 am   BACKBONE|DICT|INTERRES
    55   27   91 1    
    56   28   29 2    
    57   28   30 1    
    58   30   31 1    
    59   30   32 1    
    60   30   92 1    
    61   31   93 1    
    62   31   94 1    
    63   31   95 1    
    64   32   33 am   BACKBONE|DICT|INTERRES
    65   32   96 1    
    66   33   34 2    
    67   33   35 1    
    68   35   36 1    
    69   35   37 1    
    70   35   97 1    
    71   36   98 1    
    72   36   99 1    
    73   36  100 1    
    74   37   38 am   BACKBONE|DICT|INTERRES
    75   37  101 1    
    76   38   39 2    
    77   38   40 1    
    78   40   41 1    
    79   40   42 1    
    80   40  102 1    
    81   41  103 1    
    82   41  104 1    
    83   41  105 1    
    84   42   43 am   BACKBONE|DICT|INTERRES
    85   42  106 1    
    86   43   44 2    
    87   43   45 1    
    88   45   46 1    
    89   45   49 1    
    90   45  107 1    
    91   46   47 1    
    92   46  108 1    
    93   46  109 1    
    94   47   48 1    
    95   48  110 1    
    96   48  111 1    
    97   49   50 am   BACKBONE|DICT|INTERRES
    98   49  112 1    
    99   50   51 2    
   100   50   52 1    
   101   52   53 1    
   102   52   54 1    
   103   52  113 1    
   104   53  114 1    
   105   53  115 1    
   106   53  116 1    
   107   54   55 am   BACKBONE|DICT|INTERRES
   108   54  117 1    
   109   55   56 2    
   110   55   57 1    
   111   57   58 1    
   112   57   59 1    
   113   57  118 1    
   114   58  119 1    
   115   58  120 1    
   116   58  121 1    
   117   59   60 am   BACKBONE|DICT|INTERRES
   118   59  122 1    
   119   60   61 2    
   120   60   62 1    
   121   62   63 1    
   122   62   64 1    
   123   62  123 1    
   124   63  124 1    
   125   63  125 1    
   126   63  126 1    
   127   64   65 am   BACKBONE|DICT|INTERRES
   128   64  127 1    
   129   65   66 2    
@<TRIPOS>SUBSTRUCTURE
     1 UNK         1 GROUP             0       ****    0 ROOT    
