@<TRIPOS>MOLECULE
3R134
127   129    1
SMALL
USER_CHARGES


@<TRIPOS>ATOM
      1 CA         38.2117  -44.1152  -54.6748 C.3       0 UNK        -0.1968 
      2 C          37.1998  -45.1509  -55.1424 C.2       0 UNK         0.4852 
      3 O          37.5798  -46.1226  -55.7971 O.2       0 UNK        -0.5359 
      4 N          35.9167  -44.9462  -54.8143 N.am      1 UNK        -0.4300 
      5 CA         34.8028  -45.8362  -55.1676 C.3       1 UNK         0.0863 
      6 C6         33.4317  -45.1668  -54.9150 C.3       11 UNK        -0.0953 
      7 S7         33.1670  -43.6908  -55.9576 S.3       11 UNK        -0.2369 
      8 C8         32.6109  -42.4443  -54.7496 C.3       11 UNK         0.0226 
      9 C9         31.3047  -42.8463  -54.0789 C.ar      11 UNK        -0.0699 
     10 C10        31.3240  -43.4340  -52.8134 C.ar      11 UNK        -0.0804 
     11 C11        30.1410  -43.8607  -52.2093 C.ar      11 UNK        -0.0871 
     12 C12        28.9205  -43.6505  -52.8560 C.ar      11 UNK        -0.1008 
     13 C13        28.8827  -43.0601  -54.1259 C.ar      11 UNK        -0.0735 
     14 C14        30.0806  -42.6528  -54.7254 C.ar      11 UNK        -0.0945 
     15 C15        27.5656  -42.8510  -54.8683 C.3       11 UNK         0.0169 
     16 S16        26.4160  -44.2601  -54.7122 S.3       11 UNK        -0.2669 
     17 C17        25.3923  -44.0716  -56.2138 C.3       11 UNK        -0.0850 
     18 CA         25.4845  -45.3040  -57.1622 C.3       10 UNK         0.0855 
     19 C          24.5829  -45.1897  -58.4241 C.2       10 UNK         0.5543 
     20 N          24.6494  -46.1555  -59.3309 N.am      10 UNK        -0.7343 
     21 O          23.8184  -44.2408  -58.5842 O.2       10 UNK        -0.5027 
     22 N          26.8628  -45.7056  -57.4859 N.am      10 UNK        -0.4495 
     23 C          27.7838  -44.9624  -58.1138 C.2       10 UNK         0.4903 
     24 O          27.6016  -43.8073  -58.4989 O.2       10 UNK        -0.4860 
     25 CA         29.1529  -45.6208  -58.3446 C.3       9 UNK         0.0227 
     26 CB         30.0932  -45.3207  -57.1675 C.3       9 UNK        -0.1964 
     27 N          29.0343  -47.0699  -58.5333 N.am      9 UNK        -0.4231 
     28 C          28.7857  -47.6413  -59.7217 C.2       9 UNK         0.5014 
     29 O          28.7230  -47.0145  -60.7806 O.2       9 UNK        -0.5270 
     30 CA         28.5542  -49.1643  -59.7554 C.3       8 UNK         0.0284 
     31 CB         29.8572  -49.9107  -60.0869 C.3       8 UNK        -0.1977 
     32 N          27.9644  -49.7275  -58.5371 N.am      8 UNK        -0.4342 
     33 C          26.7603  -49.4063  -58.0459 C.2       8 UNK         0.5039 
     34 O          26.0356  -48.5382  -58.5349 O.2       8 UNK        -0.5547 
     35 CA         26.2785  -50.1486  -56.7933 C.3       7 UNK         0.0281 
     36 CB         27.1965  -51.3000  -56.3317 C.3       7 UNK        -0.1963 
     37 N          26.1646  -49.1683  -55.7209 N.am      7 UNK        -0.4444 
     38 C          25.0673  -48.9202  -54.9962 C.2       7 UNK         0.5104 
     39 O          24.0002  -49.5167  -55.1493 O.2       7 UNK        -0.5100 
     40 CA         25.1603  -47.8044  -53.9312 C.3       6 UNK         0.0396 
     41 CB         24.4123  -48.1722  -52.6325 C.3       6 UNK        -0.1801 
     42 N          26.5295  -47.3515  -53.6419 N.am      6 UNK        -0.4747 
     43 C          27.5252  -48.0728  -53.1062 C.2       6 UNK         0.5012 
     44 O          27.4083  -49.2430  -52.7368 O.2       6 UNK        -0.5003 
     45 CA         28.8942  -47.3748  -52.9748 C.3       5 UNK         0.0782 
     46 C46        29.2036  -47.1704  -51.4689 C.3       11 UNK        -0.0868 
     47 S47        30.7668  -46.3027  -51.1220 S.3       11 UNK        -0.2515 
     48 C48        30.2084  -44.5857  -50.8774 C.3       11 UNK         0.0199 
     49 N          29.9406  -48.1301  -53.6785 N.am      5 UNK        -0.4607 
     50 C          29.9098  -48.5013  -54.9692 C.2       4 UNK         0.5031 
     51 O          29.0130  -48.1758  -55.7545 O.2       4 UNK        -0.5119 
     52 CA         31.0571  -49.3830  -55.5031 C.3       4 UNK         0.0263 
     53 CB         31.7984  -48.6864  -56.6548 C.3       4 UNK        -0.1967 
     54 N          32.0319  -49.8181  -54.4953 N.am      4 UNK        -0.4237 
     55 C          31.8071  -50.7844  -53.5908 C.2       3 UNK         0.4908 
     56 O          30.7249  -51.3604  -53.4781 O.2       3 UNK        -0.5102 
     57 CA         32.9665  -51.2145  -52.6697 C.3       3 UNK         0.0241 
     58 CB         33.4180  -52.6460  -53.0077 C.3       3 UNK        -0.1971 
     59 N          34.1350  -50.3329  -52.7177 N.am      3 UNK        -0.4139 
     60 C          34.2247  -49.1407  -52.1149 C.2       2 UNK         0.5016 
     61 O          33.3193  -48.6483  -51.4433 O.2       2 UNK        -0.5319 
     62 CA         35.5363  -48.3503  -52.3018 C.3       2 UNK         0.0286 
     63 CB         36.7266  -49.2103  -52.7862 C.3       2 UNK        -0.1963 
     64 N          35.3601  -47.1885  -53.1826 N.am      2 UNK        -0.4790 
     65 C          34.8759  -47.1934  -54.4357 C.2       1 UNK         0.5024 
     66 O          34.4987  -48.2116  -55.0173 O.2       1 UNK        -0.4888 
     67 H67        38.7252  -43.6794  -55.5314 H         1 UNK         0.0892 
     68 H68        37.7410  -43.3070  -54.1153 H         1 UNK         0.0892 
     69 H69        38.9572  -44.5829  -54.0322 H         1 UNK         0.0892 
     70 H70        35.6643  -44.1137  -54.3016 H         1 UNK         0.3107 
     71 H71        34.8805  -46.0529  -56.2355 H         1 UNK         0.0773 
     72 H72        32.6093  -45.8548  -55.1145 H         1 UNK         0.0680 
     73 H73        33.3489  -44.9019  -53.8619 H         1 UNK         0.0680 
     74 H74        32.4793  -41.4907  -55.2628 H         1 UNK         0.0650 
     75 H75        33.3944  -42.2860  -54.0071 H         1 UNK         0.0650 
     76 H76        32.2657  -43.5943  -52.3068 H         1 UNK         0.1397 
     77 H77        28.0034  -43.9709  -52.3814 H         1 UNK         0.1363 
     78 H78        30.0661  -42.1977  -55.7064 H         1 UNK         0.1355 
     79 H79        27.0802  -41.9499  -54.4920 H         1 UNK         0.0707 
     80 H80        27.7701  -42.6779  -55.9257 H         1 UNK         0.0707 
     81 H81        24.3592  -43.9262  -55.8934 H         1 UNK         0.1034 
     82 H82        25.6644  -43.1588  -56.7458 H         1 UNK         0.1034 
     83 H83        25.0683  -46.1467  -56.6106 H         1 UNK         0.0482 
     84 H84        25.2281  -46.9756  -59.1580 H         1 UNK         0.3460 
     85 H85        24.0754  -46.1061  -60.1569 H         1 UNK         0.3460 
     86 H86        27.0930  -46.6649  -57.2787 H         1 UNK         0.2989 
     87 H87        29.5944  -45.1748  -59.2384 H         1 UNK         0.0559 
     88 H88        30.2771  -44.2492  -57.0938 H         1 UNK         0.0848 
     89 H89        29.6768  -45.6407  -56.2119 H         1 UNK         0.0848 
     90 H90        31.0624  -45.8007  -57.2965 H         1 UNK         0.0848 
     91 H91        29.0556  -47.6441  -57.6962 H         1 UNK         0.3144 
     92 H92        27.8476  -49.3540  -60.5664 H         1 UNK         0.0727 
     93 H93        29.6726  -50.9709  -60.2615 H         1 UNK         0.0790 
     94 H94        30.5925  -49.8267  -59.2873 H         1 UNK         0.0790 
     95 H95        30.3156  -49.5124  -60.9933 H         1 UNK         0.0790 
     96 H96        28.4957  -50.4435  -58.0642 H         1 UNK         0.3215 
     97 H97        25.3007  -50.5677  -57.0397 H         1 UNK         0.0863 
     98 H98        27.3196  -52.0508  -57.1136 H         1 UNK         0.0808 
     99 H99        28.1852  -50.9488  -56.0358 H         1 UNK         0.0808 
    100 H100       26.7670  -51.8106  -55.4695 H         1 UNK         0.0808 
    101 H101       27.0025  -48.6286  -55.5328 H         1 UNK         0.3118 
    102 H102       24.6497  -46.9419  -54.3607 H         1 UNK         0.0546 
    103 H103       23.3534  -48.3469  -52.8268 H         1 UNK         0.0828 
    104 H104       24.4755  -47.3705  -51.8970 H         1 UNK         0.0828 
    105 H105       24.8094  -49.0795  -52.1767 H         1 UNK         0.0828 
    106 H106       26.7217  -46.3968  -53.9247 H         1 UNK         0.3005 
    107 H107       28.8381  -46.3970  -53.4563 H         1 UNK         0.1257 
    108 H108       29.2594  -48.1371  -50.9638 H         1 UNK         0.0775 
    109 H109       28.3891  -46.6314  -50.9811 H         1 UNK         0.0775 
    110 H110       29.2482  -44.5592  -50.3604 H         1 UNK         0.0840 
    111 H111       30.9173  -44.0755  -50.2236 H         1 UNK         0.0840 
    112 H112       30.7154  -48.4386  -53.1096 H         1 UNK         0.2987 
    113 H113       30.5886  -50.2788  -55.9152 H         1 UNK         0.0785 
    114 H114       31.1236  -48.4465  -57.4733 H         1 UNK         0.0798 
    115 H115       32.5844  -49.3213  -57.0641 H         1 UNK         0.0798 
    116 H116       32.2567  -47.7531  -56.3349 H         1 UNK         0.0798 
    117 H117       32.9486  -49.3819  -54.5367 H         1 UNK         0.3079 
    118 H118       32.5788  -51.2144  -51.6485 H         1 UNK         0.0794 
    119 H119       32.5849  -53.3471  -52.9380 H         1 UNK         0.0786 
    120 H120       34.1873  -52.9935  -52.3177 H         1 UNK         0.0786 
    121 H121       33.8174  -52.7150  -54.0204 H         1 UNK         0.0786 
    122 H122       34.9160  -50.6422  -53.2784 H         1 UNK         0.3032 
    123 H123       35.7932  -47.9614  -51.3148 H         1 UNK         0.1094 
    124 H124       37.6495  -48.6301  -52.7824 H         1 UNK         0.0794 
    125 H125       36.8886  -50.0671  -52.1305 H         1 UNK         0.0794 
    126 H126       36.5857  -49.5862  -53.8002 H         1 UNK         0.0794 
    127 H127       35.6175  -46.2963  -52.7848 H         1 UNK         0.3016 
@<TRIPOS>BOND
     1    1    2 1    
     2    1   67 1    
     3    1   68 1    
     4    1   69 1    
     5    2    3 2    
     6    2    4 am   BACKBONE|DICT|INTERRES
     7    4    5 1    
     8    4   70 1    
     9    5    6 1    
    10    5   65 1    
    11    5   71 1    
    12    6    7 1    
    13    6   72 1    
    14    6   73 1    
    15    7    8 1    
    16    8    9 1    
    17    8   74 1    
    18    8   75 1    
    19    9   10 ar   
    20    9   14 ar   
    21   10   11 ar   
    22   10   76 1    
    23   11   12 ar   
    24   11   48 1    
    25   12   13 ar   
    26   12   77 1    
    27   13   14 ar   
    28   13   15 1    
    29   14   78 1    
    30   15   16 1    
    31   15   79 1    
    32   15   80 1    
    33   16   17 1    
    34   17   18 1    
    35   17   81 1    
    36   17   82 1    
    37   18   19 1    
    38   18   22 1    
    39   18   83 1    
    40   19   20 am   BACKBONE|DICT|INTERRES
    41   19   21 2    
    42   20   84 1    
    43   20   85 1    
    44   22   23 am   BACKBONE|DICT|INTERRES
    45   22   86 1    
    46   23   24 2    
    47   23   25 1    
    48   25   26 1    
    49   25   27 1    
    50   25   87 1    
    51   26   88 1    
    52   26   89 1    
    53   26   90 1    
    54   27   28 am   BACKBONE|DICT|INTERRES
    55   27   91 1    
    56   28   29 2    
    57   28   30 1    
    58   30   31 1    
    59   30   32 1    
    60   30   92 1    
    61   31   93 1    
    62   31   94 1    
    63   31   95 1    
    64   32   33 am   BACKBONE|DICT|INTERRES
    65   32   96 1    
    66   33   34 2    
    67   33   35 1    
    68   35   36 1    
    69   35   37 1    
    70   35   97 1    
    71   36   98 1    
    72   36   99 1    
    73   36  100 1    
    74   37   38 am   BACKBONE|DICT|INTERRES
    75   37  101 1    
    76   38   39 2    
    77   38   40 1    
    78   40   41 1    
    79   40   42 1    
    80   40  102 1    
    81   41  103 1    
    82   41  104 1    
    83   41  105 1    
    84   42   43 am   BACKBONE|DICT|INTERRES
    85   42  106 1    
    86   43   44 2    
    87   43   45 1    
    88   45   46 1    
    89   45   49 1    
    90   45  107 1    
    91   46   47 1    
    92   46  108 1    
    93   46  109 1    
    94   47   48 1    
    95   48  110 1    
    96   48  111 1    
    97   49   50 am   BACKBONE|DICT|INTERRES
    98   49  112 1    
    99   50   51 2    
   100   50   52 1    
   101   52   53 1    
   102   52   54 1    
   103   52  113 1    
   104   53  114 1    
   105   53  115 1    
   106   53  116 1    
   107   54   55 am   BACKBONE|DICT|INTERRES
   108   54  117 1    
   109   55   56 2    
   110   55   57 1    
   111   57   58 1    
   112   57   59 1    
   113   57  118 1    
   114   58  119 1    
   115   58  120 1    
   116   58  121 1    
   117   59   60 am   BACKBONE|DICT|INTERRES
   118   59  122 1    
   119   60   61 2    
   120   60   62 1    
   121   62   63 1    
   122   62   64 1    
   123   62  123 1    
   124   63  124 1    
   125   63  125 1    
   126   63  126 1    
   127   64   65 am   BACKBONE|DICT|INTERRES
   128   64  127 1    
   129   65   66 2    
@<TRIPOS>SUBSTRUCTURE
     1 UNK         1 GROUP             0       ****    0 ROOT    
