@<TRIPOS>MOLECULE
3R134
127   129    1
SMALL
USER_CHARGES


@<TRIPOS>ATOM
      1 CA         34.7052  -48.7606  -56.2350 C.3       0 UNK        -0.1968 
      2 C          34.4292  -48.4751  -54.7677 C.2       0 UNK         0.4852 
      3 O          34.2383  -49.4094  -53.9889 O.2       0 UNK        -0.5359 
      4 N          34.4231  -47.1936  -54.3757 N.am      1 UNK        -0.4300 
      5 CA         34.1201  -46.7063  -53.0195 C.3       1 UNK         0.0863 
      6 C6         34.0421  -45.1617  -52.9737 C.3       11 UNK        -0.0953 
      7 S7         32.7157  -44.5367  -54.0550 S.3       11 UNK        -0.2369 
      8 C8         31.4542  -44.0281  -52.8466 C.3       11 UNK         0.0226 
      9 C9         30.0561  -44.2420  -53.4033 C.ar      11 UNK        -0.0699 
     10 C10        29.2235  -45.2193  -52.8507 C.ar      11 UNK        -0.0804 
     11 C11        27.9566  -45.4645  -53.3906 C.ar      11 UNK        -0.0871 
     12 C12        27.5109  -44.6877  -54.4641 C.ar      11 UNK        -0.1008 
     13 C13        28.3188  -43.6819  -55.0009 C.ar      11 UNK        -0.0735 
     14 C14        29.5946  -43.4684  -54.4727 C.ar      11 UNK        -0.0945 
     15 C15        27.7929  -42.8024  -56.1227 C.3       11 UNK         0.0169 
     16 S16        28.0380  -43.5518  -57.7623 S.3       11 UNK        -0.2669 
     17 C17        27.1089  -42.3487  -58.7800 C.3       11 UNK        -0.0850 
     18 CA         25.7113  -42.8349  -59.2656 C.3       10 UNK         0.0855 
     19 C          25.7556  -43.6054  -60.6190 C.2       10 UNK         0.5543 
     20 N          25.0511  -44.7182  -60.7869 N.am      10 UNK        -0.7343 
     21 O          26.4237  -43.1692  -61.5532 O.2       10 UNK        -0.5027 
     22 N          24.9600  -43.5186  -58.2000 N.am      10 UNK        -0.4495 
     23 C          23.6398  -43.4307  -58.0034 C.2       10 UNK         0.4903 
     24 O          22.9006  -42.6830  -58.6460 O.2       10 UNK        -0.4860 
     25 CA         23.0520  -44.3474  -56.9085 C.3       9 UNK         0.0227 
     26 CB         21.5107  -44.4175  -56.9575 C.3       9 UNK        -0.1964 
     27 N          23.6208  -45.7042  -56.9042 N.am      9 UNK        -0.4231 
     28 C          23.6632  -46.5650  -57.9318 C.2       9 UNK         0.5014 
     29 O          23.2660  -46.3089  -59.0703 O.2       9 UNK        -0.5270 
     30 CA         24.2859  -47.9414  -57.6512 C.3       8 UNK         0.0284 
     31 CB         23.3498  -49.0795  -58.0933 C.3       8 UNK        -0.1977 
     32 N          25.5656  -48.0641  -58.3481 N.am      8 UNK        -0.4342 
     33 C          26.6808  -47.4293  -57.9720 C.2       8 UNK         0.5039 
     34 O          26.7583  -46.7335  -56.9556 O.2       8 UNK        -0.5547 
     35 CA         27.9076  -47.5951  -58.8767 C.3       7 UNK         0.0281 
     36 CB         27.7661  -46.7698  -60.1695 C.3       7 UNK        -0.1963 
     37 N          29.0744  -47.1615  -58.1191 N.am      7 UNK        -0.4444 
     38 C          30.3572  -47.3641  -58.4350 C.2       7 UNK         0.5104 
     39 O          30.7369  -47.9223  -59.4650 O.2       7 UNK        -0.5100 
     40 CA         31.3961  -46.8879  -57.4046 C.3       6 UNK         0.0396 
     41 CB         31.7120  -45.3972  -57.6027 C.3       6 UNK        -0.1801 
     42 N          30.9669  -47.1230  -56.0223 N.am      6 UNK        -0.4747 
     43 C          30.8212  -48.3397  -55.4777 C.2       6 UNK         0.5012 
     44 O          31.0994  -49.3925  -56.0578 O.2       6 UNK        -0.5003 
     45 CA         30.2299  -48.3911  -54.0644 C.3       5 UNK         0.0782 
     46 C46        28.6821  -48.4707  -54.1381 C.3       11 UNK        -0.0868 
     47 S47        27.9067  -48.1435  -52.5208 S.3       11 UNK        -0.2515 
     48 C48        27.0533  -46.5565  -52.8223 C.3       11 UNK         0.0199 
     49 N          30.8002  -49.5470  -53.3742 N.am      5 UNK        -0.4607 
     50 C          31.3090  -49.5450  -52.1383 C.2       4 UNK         0.5031 
     51 O          31.3763  -48.5458  -51.4230 O.2       4 UNK        -0.5119 
     52 CA         31.8355  -50.8829  -51.6058 C.3       4 UNK         0.0263 
     53 CB         31.0787  -52.1107  -52.1608 C.3       4 UNK        -0.1967 
     54 N          33.2614  -50.9817  -51.9008 N.am      4 UNK        -0.4237 
     55 C          34.1289  -51.7682  -51.2516 C.2       3 UNK         0.4908 
     56 O          33.8239  -52.4874  -50.2991 O.2       3 UNK        -0.5102 
     57 CA         35.5825  -51.7577  -51.7439 C.3       3 UNK         0.0241 
     58 CB         35.7132  -52.5343  -53.0657 C.3       3 UNK        -0.1971 
     59 N          36.0660  -50.3903  -51.9332 N.am      3 UNK        -0.4139 
     60 C          36.8863  -49.7432  -51.0930 C.2       2 UNK         0.5016 
     61 O          37.3500  -50.2418  -50.0664 O.2       2 UNK        -0.5319 
     62 CA         37.2738  -48.2957  -51.4548 C.3       2 UNK         0.0286 
     63 CB         38.6529  -48.2636  -52.1336 C.3       2 UNK        -0.1963 
     64 N          36.2982  -47.6345  -52.3250 N.am      2 UNK        -0.4790 
     65 C          35.0814  -47.2319  -51.9309 C.2       1 UNK         0.5024 
     66 O          34.6999  -47.2815  -50.7615 O.2       1 UNK        -0.4888 
     67 H67        33.8829  -49.3333  -56.6630 H         1 UNK         0.0892 
     68 H68        34.8198  -47.8452  -56.8151 H         1 UNK         0.0892 
     69 H69        35.6177  -49.3470  -56.3373 H         1 UNK         0.0892 
     70 H70        34.5867  -46.4686  -55.0598 H         1 UNK         0.3107 
     71 H71        33.1344  -47.0960  -52.7616 H         1 UNK         0.0773 
     72 H72        33.8767  -44.8040  -51.9555 H         1 UNK         0.0680 
     73 H73        34.9865  -44.7202  -53.2973 H         1 UNK         0.0680 
     74 H74        31.5976  -42.9766  -52.5940 H         1 UNK         0.0650 
     75 H75        31.5774  -44.5914  -51.9203 H         1 UNK         0.0650 
     76 H76        29.5704  -45.8105  -52.0136 H         1 UNK         0.1397 
     77 H77        26.5306  -44.8620  -54.8863 H         1 UNK         0.1363 
     78 H78        30.2308  -42.7011  -54.8927 H         1 UNK         0.1355 
     79 H79        28.2836  -41.8281  -56.0969 H         1 UNK         0.0707 
     80 H80        26.7296  -42.6134  -55.9657 H         1 UNK         0.0707 
     81 H81        26.9755  -41.4329  -58.2023 H         1 UNK         0.1034 
     82 H82        27.7399  -42.0484  -59.6184 H         1 UNK         0.1034 
     83 H83        25.1628  -41.9250  -59.5162 H         1 UNK         0.0482 
     84 H84        25.0838  -45.1820  -61.6799 H         1 UNK         0.3460 
     85 H85        24.4550  -45.0882  -60.0540 H         1 UNK         0.3460 
     86 H86        25.4947  -44.1818  -57.6557 H         1 UNK         0.2989 
     87 H87        23.3312  -43.8953  -55.9557 H         1 UNK         0.0559 
     88 H88        21.0682  -43.4269  -56.8455 H         1 UNK         0.0848 
     89 H89        21.1150  -45.0386  -56.1540 H         1 UNK         0.0848 
     90 H90        21.1558  -44.8275  -57.9038 H         1 UNK         0.0848 
     91 H91        24.0313  -46.0019  -56.0296 H         1 UNK         0.3144 
     92 H92        24.4587  -48.0472  -56.5777 H         1 UNK         0.0727 
     93 H93        23.7715  -50.0558  -57.8532 H         1 UNK         0.0790 
     94 H94        23.1547  -49.0529  -59.1663 H         1 UNK         0.0790 
     95 H95        22.3867  -49.0094  -57.5861 H         1 UNK         0.0790 
     96 H96        25.5631  -48.5870  -59.2122 H         1 UNK         0.3215 
     97 H97        28.0188  -48.6536  -59.1206 H         1 UNK         0.0863 
     98 H98        28.5981  -46.9449  -60.8511 H         1 UNK         0.0808 
     99 H99        27.7331  -45.7017  -59.9558 H         1 UNK         0.0808 
    100 H100       26.8538  -47.0268  -60.7085 H         1 UNK         0.0808 
    101 H101       28.8319  -46.6955  -57.2516 H         1 UNK         0.3118 
    102 H102       32.3138  -47.4532  -57.5772 H         1 UNK         0.0546 
    103 H103       30.8609  -44.7642  -57.3487 H         1 UNK         0.0828 
    104 H104       31.9757  -45.1875  -58.6402 H         1 UNK         0.0828 
    105 H105       32.5569  -45.0863  -56.9896 H         1 UNK         0.0828 
    106 H106       30.7191  -46.3038  -55.4834 H         1 UNK         0.3005 
    107 H107       30.5340  -47.4763  -53.5540 H         1 UNK         0.1257 
    108 H108       28.2834  -47.7627  -54.8674 H         1 UNK         0.0775 
    109 H109       28.3626  -49.4562  -54.4819 H         1 UNK         0.0775 
    110 H110       26.2150  -46.7459  -53.4949 H         1 UNK         0.0840 
    111 H111       26.6224  -46.2042  -51.8844 H         1 UNK         0.0840 
    112 H112       30.8582  -50.3868  -53.9336 H         1 UNK         0.2987 
    113 H113       31.7009  -50.8606  -50.5221 H         1 UNK         0.0785 
    114 H114       30.0000  -51.9916  -52.0488 H         1 UNK         0.0798 
    115 H115       31.3556  -53.0176  -51.6232 H         1 UNK         0.0798 
    116 H116       31.2886  -52.2807  -53.2173 H         1 UNK         0.0798 
    117 H117       33.5959  -50.3994  -52.6704 H         1 UNK         0.3079 
    118 H118       36.1898  -52.2724  -50.9960 H         1 UNK         0.0794 
    119 H119       36.7530  -52.5900  -53.3883 H         1 UNK         0.0786 
    120 H120       35.1392  -52.0721  -53.8699 H         1 UNK         0.0786 
    121 H121       35.3534  -53.5580  -52.9539 H         1 UNK         0.0786 
    122 H122       35.6824  -49.8863  -52.7262 H         1 UNK         0.3032 
    123 H123       37.3382  -47.7339  -50.5198 H         1 UNK         0.1094 
    124 H124       38.6507  -48.8047  -53.0807 H         1 UNK         0.0794 
    125 H125       38.9755  -47.2410  -52.3300 H         1 UNK         0.0794 
    126 H126       39.4110  -48.7236  -51.4979 H         1 UNK         0.0794 
    127 H127       36.5396  -47.5445  -53.3016 H         1 UNK         0.3016 
@<TRIPOS>BOND
     1    1    2 1    
     2    1   67 1    
     3    1   68 1    
     4    1   69 1    
     5    2    3 2    
     6    2    4 am   BACKBONE|DICT|INTERRES
     7    4    5 1    
     8    4   70 1    
     9    5    6 1    
    10    5   65 1    
    11    5   71 1    
    12    6    7 1    
    13    6   72 1    
    14    6   73 1    
    15    7    8 1    
    16    8    9 1    
    17    8   74 1    
    18    8   75 1    
    19    9   10 ar   
    20    9   14 ar   
    21   10   11 ar   
    22   10   76 1    
    23   11   12 ar   
    24   11   48 1    
    25   12   13 ar   
    26   12   77 1    
    27   13   14 ar   
    28   13   15 1    
    29   14   78 1    
    30   15   16 1    
    31   15   79 1    
    32   15   80 1    
    33   16   17 1    
    34   17   18 1    
    35   17   81 1    
    36   17   82 1    
    37   18   19 1    
    38   18   22 1    
    39   18   83 1    
    40   19   20 am   BACKBONE|DICT|INTERRES
    41   19   21 2    
    42   20   84 1    
    43   20   85 1    
    44   22   23 am   BACKBONE|DICT|INTERRES
    45   22   86 1    
    46   23   24 2    
    47   23   25 1    
    48   25   26 1    
    49   25   27 1    
    50   25   87 1    
    51   26   88 1    
    52   26   89 1    
    53   26   90 1    
    54   27   28 am   BACKBONE|DICT|INTERRES
    55   27   91 1    
    56   28   29 2    
    57   28   30 1    
    58   30   31 1    
    59   30   32 1    
    60   30   92 1    
    61   31   93 1    
    62   31   94 1    
    63   31   95 1    
    64   32   33 am   BACKBONE|DICT|INTERRES
    65   32   96 1    
    66   33   34 2    
    67   33   35 1    
    68   35   36 1    
    69   35   37 1    
    70   35   97 1    
    71   36   98 1    
    72   36   99 1    
    73   36  100 1    
    74   37   38 am   BACKBONE|DICT|INTERRES
    75   37  101 1    
    76   38   39 2    
    77   38   40 1    
    78   40   41 1    
    79   40   42 1    
    80   40  102 1    
    81   41  103 1    
    82   41  104 1    
    83   41  105 1    
    84   42   43 am   BACKBONE|DICT|INTERRES
    85   42  106 1    
    86   43   44 2    
    87   43   45 1    
    88   45   46 1    
    89   45   49 1    
    90   45  107 1    
    91   46   47 1    
    92   46  108 1    
    93   46  109 1    
    94   47   48 1    
    95   48  110 1    
    96   48  111 1    
    97   49   50 am   BACKBONE|DICT|INTERRES
    98   49  112 1    
    99   50   51 2    
   100   50   52 1    
   101   52   53 1    
   102   52   54 1    
   103   52  113 1    
   104   53  114 1    
   105   53  115 1    
   106   53  116 1    
   107   54   55 am   BACKBONE|DICT|INTERRES
   108   54  117 1    
   109   55   56 2    
   110   55   57 1    
   111   57   58 1    
   112   57   59 1    
   113   57  118 1    
   114   58  119 1    
   115   58  120 1    
   116   58  121 1    
   117   59   60 am   BACKBONE|DICT|INTERRES
   118   59  122 1    
   119   60   61 2    
   120   60   62 1    
   121   62   63 1    
   122   62   64 1    
   123   62  123 1    
   124   63  124 1    
   125   63  125 1    
   126   63  126 1    
   127   64   65 am   BACKBONE|DICT|INTERRES
   128   64  127 1    
   129   65   66 2    
@<TRIPOS>SUBSTRUCTURE
     1 UNK         1 GROUP             0       ****    0 ROOT    
