@<TRIPOS>MOLECULE
3R134
127   129    1
SMALL
USER_CHARGES


@<TRIPOS>ATOM
      1 CA         31.9535  -43.0544  -51.4428 C.3       0 UNK        -0.1968 
      2 C          33.2715  -43.4041  -52.1162 C.2       0 UNK         0.4852 
      3 O          34.3273  -42.9515  -51.6695 O.2       0 UNK        -0.5359 
      4 N          33.2155  -44.2044  -53.1872 N.am      1 UNK        -0.4300 
      5 CA         34.3796  -44.7345  -53.9012 C.3       1 UNK         0.0863 
      6 C6         34.0261  -45.0874  -55.3707 C.3       11 UNK        -0.0953 
      7 S7         32.8290  -46.4565  -55.5501 S.3       11 UNK        -0.2369 
      8 C8         31.4147  -45.6363  -56.3396 C.3       11 UNK         0.0226 
      9 C9         30.6746  -44.7170  -55.3808 C.ar      11 UNK        -0.0699 
     10 C10        29.8797  -45.2545  -54.3640 C.ar      11 UNK        -0.0804 
     11 C11        29.1579  -44.4180  -53.5020 C.ar      11 UNK        -0.0871 
     12 C12        29.2300  -43.0323  -53.6887 C.ar      11 UNK        -0.1008 
     13 C13        30.0323  -42.4813  -54.6926 C.ar      11 UNK        -0.0735 
     14 C14        30.7569  -43.3317  -55.5318 C.ar      11 UNK        -0.0945 
     15 C15        30.1629  -40.9688  -54.8301 C.3       11 UNK         0.0169 
     16 S16        29.8644  -40.3707  -56.5272 S.3       11 UNK        -0.2669 
     17 C17        28.0384  -40.3347  -56.6384 C.3       11 UNK        -0.0850 
     18 CA         27.4233  -41.3573  -57.6327 C.3       10 UNK         0.0855 
     19 C          27.8790  -41.1246  -59.1037 C.2       10 UNK         0.5543 
     20 N          27.3576  -40.0919  -59.7525 N.am      10 UNK        -0.7343 
     21 O          28.7102  -41.8469  -59.6519 O.2       10 UNK        -0.5027 
     22 N          27.6043  -42.7328  -57.1536 N.am      10 UNK        -0.4495 
     23 C          26.9817  -43.8099  -57.6452 C.2       10 UNK         0.4903 
     24 O          26.1577  -43.7905  -58.5631 O.2       10 UNK        -0.4860 
     25 CA         27.2985  -45.1291  -56.9431 C.3       9 UNK         0.0227 
     26 CB         26.4398  -45.2918  -55.6758 C.3       9 UNK        -0.1964 
     27 N          27.0813  -46.2537  -57.8482 N.am      9 UNK        -0.4231 
     28 C          27.6806  -47.4412  -57.7211 C.2       9 UNK         0.5014 
     29 O          28.4862  -47.7128  -56.8277 O.2       9 UNK        -0.5270 
     30 CA         27.3510  -48.5083  -58.7684 C.3       8 UNK         0.0284 
     31 CB         28.2394  -48.3404  -60.0167 C.3       8 UNK        -0.1977 
     32 N          27.5829  -49.8029  -58.1367 N.am      8 UNK        -0.4342 
     33 C          27.2060  -51.0025  -58.5878 C.2       8 UNK         0.5039 
     34 O          26.6292  -51.1895  -59.6600 O.2       8 UNK        -0.5547 
     35 CA         27.5018  -52.1940  -57.6641 C.3       7 UNK         0.0281 
     36 CB         28.9945  -52.5636  -57.6971 C.3       7 UNK        -0.1963 
     37 N          27.0838  -51.9168  -56.2867 N.am      7 UNK        -0.4444 
     38 C          25.8084  -51.9772  -55.8704 C.2       7 UNK         0.5104 
     39 O          24.8730  -52.3266  -56.5914 O.2       7 UNK        -0.5100 
     40 CA         25.5084  -51.6013  -54.4060 C.3       6 UNK         0.0396 
     41 CB         25.4176  -52.8668  -53.5383 C.3       6 UNK        -0.1801 
     42 N          26.4923  -50.6908  -53.8204 N.am      6 UNK        -0.4747 
     43 C          26.6641  -49.4077  -54.1726 C.2       6 UNK         0.5012 
     44 O          25.9307  -48.8222  -54.9686 O.2       6 UNK        -0.5003 
     45 CA         27.8615  -48.6590  -53.5421 C.3       5 UNK         0.0782 
     46 C46        27.3690  -47.6644  -52.4620 C.3       11 UNK        -0.0868 
     47 S47        28.7101  -46.6338  -51.7672 S.3       11 UNK        -0.2515 
     48 C48        28.2899  -44.9534  -52.3598 C.3       11 UNK         0.0199 
     49 N          28.9015  -49.5619  -53.0242 N.am      5 UNK        -0.4607 
     50 C          29.6260  -50.4122  -53.7627 C.2       4 UNK         0.5031 
     51 O          29.4770  -50.5688  -54.9762 O.2       4 UNK        -0.5119 
     52 CA         30.6267  -51.2977  -53.0052 C.3       4 UNK         0.0263 
     53 CB         30.1745  -52.7677  -53.0392 C.3       4 UNK        -0.1967 
     54 N          31.9710  -51.1890  -53.5714 N.am      4 UNK        -0.4237 
     55 C          32.7484  -50.1058  -53.4533 C.2       3 UNK         0.4908 
     56 O          32.4230  -49.0954  -52.8243 O.2       3 UNK        -0.5102 
     57 CA         34.1214  -50.1715  -54.1361 C.3       3 UNK         0.0241 
     58 CB         33.9914  -50.1706  -55.6725 C.3       3 UNK        -0.1971 
     59 N          34.9133  -49.0284  -53.6894 N.am      3 UNK        -0.4139 
     60 C          36.2447  -48.9140  -53.7251 C.2       2 UNK         0.5016 
     61 O          36.9850  -49.7836  -54.1893 O.2       2 UNK        -0.5319 
     62 CA         36.8491  -47.6095  -53.1565 C.3       2 UNK         0.0286 
     63 CB         38.3522  -47.4693  -53.4650 C.3       2 UNK        -0.1963 
     64 N          36.1546  -46.4131  -53.6471 N.am      2 UNK        -0.4790 
     65 C          35.0124  -45.9260  -53.1444 C.2       1 UNK         0.5024 
     66 O          34.4505  -46.4210  -52.1638 O.2       1 UNK        -0.4888 
     67 H67        32.0978  -42.9129  -50.3720 H         1 UNK         0.0892 
     68 H68        31.5496  -42.1321  -51.8591 H         1 UNK         0.0892 
     69 H69        31.2188  -43.8477  -51.5766 H         1 UNK         0.0892 
     70 H70        32.3225  -44.5600  -53.5017 H         1 UNK         0.3107 
     71 H71        35.1374  -43.9485  -53.9317 H         1 UNK         0.0773 
     72 H72        33.6417  -44.1995  -55.8744 H         1 UNK         0.0680 
     73 H73        34.9258  -45.3585  -55.9251 H         1 UNK         0.0680 
     74 H74        30.7303  -46.4031  -56.7010 H         1 UNK         0.0650 
     75 H75        31.7543  -45.0941  -57.2234 H         1 UNK         0.0650 
     76 H76        29.8303  -46.3285  -54.2599 H         1 UNK         0.1397 
     77 H77        28.6774  -42.3767  -53.0290 H         1 UNK         0.1363 
     78 H78        31.3813  -42.9113  -56.3085 H         1 UNK         0.1355 
     79 H79        31.1775  -40.6900  -54.5424 H         1 UNK         0.0707 
     80 H80        29.4988  -40.4477  -54.1388 H         1 UNK         0.0707 
     81 H81        27.6090  -40.4861  -55.6469 H         1 UNK         0.1034 
     82 H82        27.7446  -39.3224  -56.9215 H         1 UNK         0.1034 
     83 H83        26.3443  -41.1889  -57.6245 H         1 UNK         0.0482 
     84 H84        26.6778  -39.4884  -59.3166 H         1 UNK         0.3460 
     85 H85        27.6457  -39.9155  -60.7024 H         1 UNK         0.3460 
     86 H86        28.2936  -42.8538  -56.4244 H         1 UNK         0.2989 
     87 H87        28.3517  -45.1051  -56.6696 H         1 UNK         0.0559 
     88 H88        25.3817  -45.3980  -55.9170 H         1 UNK         0.0848 
     89 H89        26.5409  -44.4296  -55.0161 H         1 UNK         0.0848 
     90 H90        26.7435  -46.1697  -55.1085 H         1 UNK         0.0848 
     91 H91        26.4650  -46.0636  -58.6288 H         1 UNK         0.3144 
     92 H92        26.2967  -48.4301  -59.0415 H         1 UNK         0.0727 
     93 H93        28.0044  -49.0817  -60.7803 H         1 UNK         0.0790 
     94 H94        29.2976  -48.4375  -59.7705 H         1 UNK         0.0790 
     95 H95        28.0978  -47.3581  -60.4691 H         1 UNK         0.0790 
     96 H96        28.0483  -49.7258  -57.2376 H         1 UNK         0.3215 
     97 H97        26.9384  -53.0538  -58.0343 H         1 UNK         0.0863 
     98 H98        29.2045  -53.4234  -57.0608 H         1 UNK         0.0808 
     99 H99        29.6284  -51.7403  -57.3662 H         1 UNK         0.0808 
    100 H100       29.3061  -52.8252  -58.7091 H         1 UNK         0.0808 
    101 H101       27.7989  -51.5791  -55.6509 H         1 UNK         0.3118 
    102 H102       24.5360  -51.1045  -54.3868 H         1 UNK         0.0546 
    103 H103       24.6681  -53.5556  -53.9309 H         1 UNK         0.0828 
    104 H104       25.1289  -52.6279  -52.5146 H         1 UNK         0.0828 
    105 H105       26.3664  -53.4040  -53.5048 H         1 UNK         0.0828 
    106 H106       27.1302  -51.0831  -53.1435 H         1 UNK         0.3005 
    107 H107       28.3157  -48.0832  -54.3484 H         1 UNK         0.1257 
    108 H108       26.9075  -48.2071  -51.6349 H         1 UNK         0.0775 
    109 H109       26.5844  -47.0213  -52.8627 H         1 UNK         0.0775 
    110 H110       27.2412  -44.8966  -52.6503 H         1 UNK         0.0840 
    111 H111       28.3938  -44.2853  -51.5034 H         1 UNK         0.0840 
    112 H112       29.0986  -49.4799  -52.0370 H         1 UNK         0.2987 
    113 H113       30.6698  -50.9790  -51.9612 H         1 UNK         0.0785 
    114 H114       29.1830  -52.8825  -52.5993 H         1 UNK         0.0798 
    115 H115       30.8535  -53.4051  -52.4726 H         1 UNK         0.0798 
    116 H116       30.1246  -53.1531  -54.0587 H         1 UNK         0.0798 
    117 H117       32.2911  -51.9656  -54.1315 H         1 UNK         0.3079 
    118 H118       34.6169  -51.0889  -53.8113 H         1 UNK         0.0794 
    119 H119       33.4665  -49.2858  -56.0317 H         1 UNK         0.0786 
    120 H120       33.4363  -51.0410  -56.0236 H         1 UNK         0.0786 
    121 H121       34.9677  -50.1981  -56.1566 H         1 UNK         0.0786 
    122 H122       34.3661  -48.2967  -53.2429 H         1 UNK         0.3032 
    123 H123       36.7409  -47.6636  -52.0705 H         1 UNK         0.1094 
    124 H124       38.5430  -47.4385  -54.5385 H         1 UNK         0.0794 
    125 H125       38.7654  -46.5622  -53.0235 H         1 UNK         0.0794 
    126 H126       38.9164  -48.3091  -53.0569 H         1 UNK         0.0794 
    127 H127       36.5410  -45.9843  -54.4763 H         1 UNK         0.3016 
@<TRIPOS>BOND
     1    1    2 1    
     2    1   67 1    
     3    1   68 1    
     4    1   69 1    
     5    2    3 2    
     6    2    4 am   BACKBONE|DICT|INTERRES
     7    4    5 1    
     8    4   70 1    
     9    5    6 1    
    10    5   65 1    
    11    5   71 1    
    12    6    7 1    
    13    6   72 1    
    14    6   73 1    
    15    7    8 1    
    16    8    9 1    
    17    8   74 1    
    18    8   75 1    
    19    9   10 ar   
    20    9   14 ar   
    21   10   11 ar   
    22   10   76 1    
    23   11   12 ar   
    24   11   48 1    
    25   12   13 ar   
    26   12   77 1    
    27   13   14 ar   
    28   13   15 1    
    29   14   78 1    
    30   15   16 1    
    31   15   79 1    
    32   15   80 1    
    33   16   17 1    
    34   17   18 1    
    35   17   81 1    
    36   17   82 1    
    37   18   19 1    
    38   18   22 1    
    39   18   83 1    
    40   19   20 am   BACKBONE|DICT|INTERRES
    41   19   21 2    
    42   20   84 1    
    43   20   85 1    
    44   22   23 am   BACKBONE|DICT|INTERRES
    45   22   86 1    
    46   23   24 2    
    47   23   25 1    
    48   25   26 1    
    49   25   27 1    
    50   25   87 1    
    51   26   88 1    
    52   26   89 1    
    53   26   90 1    
    54   27   28 am   BACKBONE|DICT|INTERRES
    55   27   91 1    
    56   28   29 2    
    57   28   30 1    
    58   30   31 1    
    59   30   32 1    
    60   30   92 1    
    61   31   93 1    
    62   31   94 1    
    63   31   95 1    
    64   32   33 am   BACKBONE|DICT|INTERRES
    65   32   96 1    
    66   33   34 2    
    67   33   35 1    
    68   35   36 1    
    69   35   37 1    
    70   35   97 1    
    71   36   98 1    
    72   36   99 1    
    73   36  100 1    
    74   37   38 am   BACKBONE|DICT|INTERRES
    75   37  101 1    
    76   38   39 2    
    77   38   40 1    
    78   40   41 1    
    79   40   42 1    
    80   40  102 1    
    81   41  103 1    
    82   41  104 1    
    83   41  105 1    
    84   42   43 am   BACKBONE|DICT|INTERRES
    85   42  106 1    
    86   43   44 2    
    87   43   45 1    
    88   45   46 1    
    89   45   49 1    
    90   45  107 1    
    91   46   47 1    
    92   46  108 1    
    93   46  109 1    
    94   47   48 1    
    95   48  110 1    
    96   48  111 1    
    97   49   50 am   BACKBONE|DICT|INTERRES
    98   49  112 1    
    99   50   51 2    
   100   50   52 1    
   101   52   53 1    
   102   52   54 1    
   103   52  113 1    
   104   53  114 1    
   105   53  115 1    
   106   53  116 1    
   107   54   55 am   BACKBONE|DICT|INTERRES
   108   54  117 1    
   109   55   56 2    
   110   55   57 1    
   111   57   58 1    
   112   57   59 1    
   113   57  118 1    
   114   58  119 1    
   115   58  120 1    
   116   58  121 1    
   117   59   60 am   BACKBONE|DICT|INTERRES
   118   59  122 1    
   119   60   61 2    
   120   60   62 1    
   121   62   63 1    
   122   62   64 1    
   123   62  123 1    
   124   63  124 1    
   125   63  125 1    
   126   63  126 1    
   127   64   65 am   BACKBONE|DICT|INTERRES
   128   64  127 1    
   129   65   66 2    
@<TRIPOS>SUBSTRUCTURE
     1 UNK         1 GROUP             0       ****    0 ROOT    
