@<TRIPOS>MOLECULE
3R134
127   129    1
SMALL
USER_CHARGES


@<TRIPOS>ATOM
      1 CA         32.4846  -46.5964  -50.2488 C.3       0 UNK        -0.1968 
      2 C          33.8178  -46.0641  -50.7493 C.2       0 UNK         0.4852 
      3 O          34.3975  -45.1721  -50.1272 O.2       0 UNK        -0.5359 
      4 N          34.3020  -46.6121  -51.8657 N.am      1 UNK        -0.4300 
      5 CA         35.5762  -46.2767  -52.4968 C.3       1 UNK         0.0863 
      6 C6         35.4224  -45.2032  -53.6109 C.3       11 UNK        -0.0953 
      7 S7         34.2235  -45.6201  -54.9318 S.3       11 UNK        -0.2369 
      8 C8         33.5814  -43.9753  -55.3756 C.3       11 UNK         0.0226 
      9 C9         32.0883  -43.8591  -55.1082 C.ar      11 UNK        -0.0699 
     10 C10        31.6095  -43.7198  -53.8008 C.ar      11 UNK        -0.0804 
     11 C11        30.2392  -43.5712  -53.5598 C.ar      11 UNK        -0.0871 
     12 C12        29.3483  -43.5734  -54.6369 C.ar      11 UNK        -0.1008 
     13 C13        29.8149  -43.7120  -55.9469 C.ar      11 UNK        -0.0735 
     14 C14        31.1859  -43.8554  -56.1763 C.ar      11 UNK        -0.0945 
     15 C15        28.8347  -43.6958  -57.1095 C.3       11 UNK         0.0169 
     16 S16        28.1079  -42.0412  -57.3159 S.3       11 UNK        -0.2669 
     17 C17        27.0912  -42.2409  -58.8167 C.3       11 UNK        -0.0850 
     18 CA         25.6477  -42.7314  -58.4911 C.3       10 UNK         0.0855 
     19 C          24.5861  -42.2955  -59.5518 C.2       10 UNK         0.5543 
     20 N          23.5076  -43.0447  -59.7475 N.am      10 UNK        -0.7343 
     21 O          24.7153  -41.2475  -60.1802 O.2       10 UNK        -0.5027 
     22 N          25.6152  -44.1639  -58.1329 N.am      10 UNK        -0.4495 
     23 C          25.8524  -45.1843  -58.9697 C.2       10 UNK         0.4903 
     24 O          26.1197  -45.0461  -60.1644 O.2       10 UNK        -0.4860 
     25 CA         25.7482  -46.5924  -58.3600 C.3       9 UNK         0.0227 
     26 CB         25.0705  -47.5920  -59.3192 C.3       9 UNK        -0.1964 
     27 N          27.0368  -47.1135  -57.8924 N.am      9 UNK        -0.4231 
     28 C          28.1454  -47.3806  -58.6039 C.2       9 UNK         0.5014 
     29 O          28.2954  -47.1298  -59.7996 O.2       9 UNK        -0.5270 
     30 CA         29.2732  -48.1183  -57.8583 C.3       8 UNK         0.0284 
     31 CB         30.1386  -47.1414  -57.0477 C.3       8 UNK        -0.1977 
     32 N          28.7655  -49.1690  -56.9746 N.am      8 UNK        -0.4342 
     33 C          28.1071  -50.2676  -57.3727 C.2       8 UNK         0.5039 
     34 O          27.9327  -50.5803  -58.5510 O.2       8 UNK        -0.5547 
     35 CA         27.5204  -51.1545  -56.2642 C.3       7 UNK         0.0281 
     36 CB         28.5863  -52.1055  -55.6941 C.3       7 UNK        -0.1963 
     37 N          26.9451  -50.3449  -55.1875 N.am      7 UNK        -0.4444 
     38 C          25.7290  -49.7821  -55.2327 C.2       7 UNK         0.5104 
     39 O          24.9316  -49.9484  -56.1554 O.2       7 UNK        -0.5100 
     40 CA         25.3261  -48.8788  -54.0518 C.3       6 UNK         0.0396 
     41 CB         24.5362  -49.6848  -53.0085 C.3       6 UNK        -0.1801 
     42 N          26.4646  -48.2280  -53.3976 N.am      6 UNK        -0.4747 
     43 C          27.1884  -47.2362  -53.9373 C.2       6 UNK         0.5012 
     44 O          26.9573  -46.7452  -55.0426 O.2       6 UNK        -0.5003 
     45 CA         28.4126  -46.7556  -53.1303 C.3       5 UNK         0.0782 
     46 C46        28.0105  -45.6332  -52.1443 C.3       11 UNK        -0.0868 
     47 S47        29.4528  -44.9392  -51.2685 S.3       11 UNK        -0.2515 
     48 C48        29.7231  -43.3662  -52.1423 C.3       11 UNK         0.0199 
     49 N          29.1305  -47.8518  -52.4616 N.am      5 UNK        -0.4607 
     50 C          29.6746  -48.8963  -53.0951 C.2       4 UNK         0.5031 
     51 O          29.5230  -49.1143  -54.2980 O.2       4 UNK        -0.5119 
     52 CA         30.4830  -49.8922  -52.2486 C.3       4 UNK         0.0263 
     53 CB         29.5648  -51.0046  -51.7175 C.3       4 UNK        -0.1967 
     54 N          31.5562  -50.4925  -53.0459 N.am      4 UNK        -0.4237 
     55 C          32.6054  -49.8069  -53.5162 C.2       3 UNK         0.4908 
     56 O          32.8655  -48.6445  -53.1873 O.2       3 UNK        -0.5102 
     57 CA         33.4933  -50.5287  -54.5398 C.3       3 UNK         0.0241 
     58 CB         32.7563  -50.7143  -55.8790 C.3       3 UNK        -0.1971 
     59 N          34.6755  -49.7050  -54.7556 N.am      3 UNK        -0.4139 
     60 C          35.9438  -50.1211  -54.8229 C.2       2 UNK         0.5016 
     61 O          36.2805  -51.3047  -54.8750 O.2       2 UNK        -0.5319 
     62 CA         37.0251  -49.0211  -54.8059 C.3       2 UNK         0.0286 
     63 CB         37.5344  -48.7432  -56.2294 C.3       2 UNK        -0.1963 
     64 N          36.5525  -47.7634  -54.2112 N.am      2 UNK        -0.4790 
     65 C          36.2518  -47.5965  -52.9151 C.2       1 UNK         0.5024 
     66 O          36.4681  -48.4563  -52.0585 O.2       1 UNK        -0.4888 
     67 H67        31.8751  -46.9686  -51.0721 H         1 UNK         0.0892 
     68 H68        32.6445  -47.4089  -49.5408 H         1 UNK         0.0892 
     69 H69        31.9260  -45.8085  -49.7447 H         1 UNK         0.0892 
     70 H70        33.7779  -47.3562  -52.3282 H         1 UNK         0.3107 
     71 H71        36.2442  -45.8586  -51.7407 H         1 UNK         0.0773 
     72 H72        35.1046  -44.2751  -53.1341 H         1 UNK         0.0680 
     73 H73        36.3875  -44.9764  -54.0670 H         1 UNK         0.0680 
     74 H74        33.7934  -43.8014  -56.4316 H         1 UNK         0.0650 
     75 H75        34.1081  -43.1875  -54.8363 H         1 UNK         0.0650 
     76 H76        32.3062  -43.7179  -52.9733 H         1 UNK         0.1397 
     77 H77        28.2883  -43.4483  -54.4631 H         1 UNK         0.1363 
     78 H78        31.5524  -43.9554  -57.1887 H         1 UNK         0.1355 
     79 H79        29.3230  -43.9991  -58.0370 H         1 UNK         0.0707 
     80 H80        28.0483  -44.4250  -56.9156 H         1 UNK         0.0707 
     81 H81        27.0748  -41.2592  -59.2927 H         1 UNK         0.1034 
     82 H82        27.5898  -42.8992  -59.5293 H         1 UNK         0.1034 
     83 H83        25.3247  -42.2060  -57.5915 H         1 UNK         0.0482 
     84 H84        22.8193  -42.7532  -60.4236 H         1 UNK         0.3460 
     85 H85        23.3793  -43.8997  -59.2310 H         1 UNK         0.3460 
     86 H86        25.3841  -44.3667  -57.1707 H         1 UNK         0.2989 
     87 H87        25.1158  -46.5243  -57.4732 H         1 UNK         0.0559 
     88 H88        24.0839  -47.2370  -59.6190 H         1 UNK         0.0848 
     89 H89        24.9367  -48.5644  -58.8443 H         1 UNK         0.0848 
     90 H90        25.6511  -47.7431  -60.2299 H         1 UNK         0.0848 
     91 H91        27.0807  -47.2742  -56.8893 H         1 UNK         0.3144 
     92 H92        29.9101  -48.5969  -58.6051 H         1 UNK         0.0727 
     93 H93        29.5600  -46.6358  -56.2748 H         1 UNK         0.0790 
     94 H94        30.5667  -46.3747  -57.6939 H         1 UNK         0.0790 
     95 H95        30.9679  -47.6525  -56.5582 H         1 UNK         0.0790 
     96 H96        28.9393  -49.0504  -55.9767 H         1 UNK         0.3215 
     97 H97        26.7299  -51.7646  -56.7074 H         1 UNK         0.0863 
     98 H98        28.1640  -52.7645  -54.9355 H         1 UNK         0.0808 
     99 H99        29.4188  -51.5657  -55.2437 H         1 UNK         0.0808 
    100 H100       28.9992  -52.7393  -56.4799 H         1 UNK         0.0808 
    101 H101       27.5635  -50.0970  -54.4273 H         1 UNK         0.3118 
    102 H102       24.6702  -48.0988  -54.4447 H         1 UNK         0.0546 
    103 H103       25.1417  -50.4752  -52.5633 H         1 UNK         0.0828 
    104 H104       23.6643  -50.1591  -53.4612 H         1 UNK         0.0828 
    105 H105       24.1725  -49.0452  -52.2041 H         1 UNK         0.0828 
    106 H106       26.7311  -48.5750  -52.4871 H         1 UNK         0.3005 
    107 H107       29.1085  -46.3302  -53.8567 H         1 UNK         0.1257 
    108 H108       27.3155  -46.0158  -51.3944 H         1 UNK         0.0775 
    109 H109       27.4809  -44.8303  -52.6598 H         1 UNK         0.0775 
    110 H110       28.7982  -42.7871  -52.1490 H         1 UNK         0.0840 
    111 H111       30.4426  -42.7730  -51.5758 H         1 UNK         0.0840 
    112 H112       29.2841  -47.7366  -51.4703 H         1 UNK         0.2987 
    113 H113       30.9308  -49.3637  -51.4044 H         1 UNK         0.0785 
    114 H114       28.7691  -50.5930  -51.0951 H         1 UNK         0.0798 
    115 H115       30.1182  -51.7147  -51.1027 H         1 UNK         0.0798 
    116 H116       29.0905  -51.5610  -52.5272 H         1 UNK         0.0798 
    117 H117       31.4008  -51.4327  -53.3777 H         1 UNK         0.3079 
    118 H118       33.7775  -51.4999  -54.1292 H         1 UNK         0.0794 
    119 H119       33.4046  -51.1718  -56.6264 H         1 UNK         0.0786 
    120 H120       32.4039  -49.7628  -56.2801 H         1 UNK         0.0786 
    121 H121       31.8865  -51.3621  -55.7676 H         1 UNK         0.0786 
    122 H122       34.5060  -48.7131  -54.6480 H         1 UNK         0.3032 
    123 H123       37.8585  -49.3934  -54.2056 H         1 UNK         0.1094 
    124 H124       36.7431  -48.3579  -56.8739 H         1 UNK         0.0794 
    125 H125       38.3487  -48.0184  -56.2255 H         1 UNK         0.0794 
    126 H126       37.9163  -49.6547  -56.6916 H         1 UNK         0.0794 
    127 H127       36.3224  -47.0133  -54.8500 H         1 UNK         0.3016 
@<TRIPOS>BOND
     1    1    2 1    
     2    1   67 1    
     3    1   68 1    
     4    1   69 1    
     5    2    3 2    
     6    2    4 am   BACKBONE|DICT|INTERRES
     7    4    5 1    
     8    4   70 1    
     9    5    6 1    
    10    5   65 1    
    11    5   71 1    
    12    6    7 1    
    13    6   72 1    
    14    6   73 1    
    15    7    8 1    
    16    8    9 1    
    17    8   74 1    
    18    8   75 1    
    19    9   10 ar   
    20    9   14 ar   
    21   10   11 ar   
    22   10   76 1    
    23   11   12 ar   
    24   11   48 1    
    25   12   13 ar   
    26   12   77 1    
    27   13   14 ar   
    28   13   15 1    
    29   14   78 1    
    30   15   16 1    
    31   15   79 1    
    32   15   80 1    
    33   16   17 1    
    34   17   18 1    
    35   17   81 1    
    36   17   82 1    
    37   18   19 1    
    38   18   22 1    
    39   18   83 1    
    40   19   20 am   BACKBONE|DICT|INTERRES
    41   19   21 2    
    42   20   84 1    
    43   20   85 1    
    44   22   23 am   BACKBONE|DICT|INTERRES
    45   22   86 1    
    46   23   24 2    
    47   23   25 1    
    48   25   26 1    
    49   25   27 1    
    50   25   87 1    
    51   26   88 1    
    52   26   89 1    
    53   26   90 1    
    54   27   28 am   BACKBONE|DICT|INTERRES
    55   27   91 1    
    56   28   29 2    
    57   28   30 1    
    58   30   31 1    
    59   30   32 1    
    60   30   92 1    
    61   31   93 1    
    62   31   94 1    
    63   31   95 1    
    64   32   33 am   BACKBONE|DICT|INTERRES
    65   32   96 1    
    66   33   34 2    
    67   33   35 1    
    68   35   36 1    
    69   35   37 1    
    70   35   97 1    
    71   36   98 1    
    72   36   99 1    
    73   36  100 1    
    74   37   38 am   BACKBONE|DICT|INTERRES
    75   37  101 1    
    76   38   39 2    
    77   38   40 1    
    78   40   41 1    
    79   40   42 1    
    80   40  102 1    
    81   41  103 1    
    82   41  104 1    
    83   41  105 1    
    84   42   43 am   BACKBONE|DICT|INTERRES
    85   42  106 1    
    86   43   44 2    
    87   43   45 1    
    88   45   46 1    
    89   45   49 1    
    90   45  107 1    
    91   46   47 1    
    92   46  108 1    
    93   46  109 1    
    94   47   48 1    
    95   48  110 1    
    96   48  111 1    
    97   49   50 am   BACKBONE|DICT|INTERRES
    98   49  112 1    
    99   50   51 2    
   100   50   52 1    
   101   52   53 1    
   102   52   54 1    
   103   52  113 1    
   104   53  114 1    
   105   53  115 1    
   106   53  116 1    
   107   54   55 am   BACKBONE|DICT|INTERRES
   108   54  117 1    
   109   55   56 2    
   110   55   57 1    
   111   57   58 1    
   112   57   59 1    
   113   57  118 1    
   114   58  119 1    
   115   58  120 1    
   116   58  121 1    
   117   59   60 am   BACKBONE|DICT|INTERRES
   118   59  122 1    
   119   60   61 2    
   120   60   62 1    
   121   62   63 1    
   122   62   64 1    
   123   62  123 1    
   124   63  124 1    
   125   63  125 1    
   126   63  126 1    
   127   64   65 am   BACKBONE|DICT|INTERRES
   128   64  127 1    
   129   65   66 2    
@<TRIPOS>SUBSTRUCTURE
     1 UNK         1 GROUP             0       ****    0 ROOT    
