@<TRIPOS>MOLECULE
3R134
127   129    1
SMALL
USER_CHARGES


@<TRIPOS>ATOM
      1 CA         36.5831  -47.1555  -57.2690 C.3       0 UNK        -0.1968 
      2 C          35.5718  -47.2212  -56.1351 C.2       0 UNK         0.4852 
      3 O          34.7598  -48.1463  -56.0926 O.2       0 UNK        -0.5359 
      4 N          35.6252  -46.2577  -55.2027 N.am      1 UNK        -0.4300 
      5 CA         34.6974  -46.1171  -54.0683 C.3       1 UNK         0.0863 
      6 C6         34.9428  -44.8122  -53.2687 C.3       11 UNK        -0.0953 
      7 S7         34.9886  -43.2454  -54.2163 S.3       11 UNK        -0.2369 
      8 C8         33.8128  -43.4524  -55.6044 C.3       11 UNK         0.0226 
      9 C9         32.3219  -43.3659  -55.2689 C.ar      11 UNK        -0.0699 
     10 C10        31.8245  -43.2361  -53.9632 C.ar      11 UNK        -0.0804 
     11 C11        30.4484  -43.1420  -53.7300 C.ar      11 UNK        -0.0871 
     12 C12        29.5650  -43.1789  -54.8094 C.ar      11 UNK        -0.1008 
     13 C13        30.0423  -43.3009  -56.1154 C.ar      11 UNK        -0.0735 
     14 C14        31.4176  -43.3996  -56.3361 C.ar      11 UNK        -0.0945 
     15 C15        29.0652  -43.3439  -57.2790 C.3       11 UNK         0.0169 
     16 S16        28.0130  -41.8572  -57.3283 S.3       11 UNK        -0.2669 
     17 C17        26.4951  -42.5778  -58.0262 C.3       11 UNK        -0.0850 
     18 CA         25.7134  -43.4406  -56.9779 C.3       10 UNK         0.0855 
     19 C          24.3114  -42.8649  -56.6100 C.2       10 UNK         0.5543 
     20 N          23.3032  -43.6917  -56.3606 N.am      10 UNK        -0.7343 
     21 O          24.1400  -41.6524  -56.5112 O.2       10 UNK        -0.5027 
     22 N          25.7355  -44.8763  -57.3104 N.am      10 UNK        -0.4495 
     23 C          25.2230  -45.4262  -58.4200 C.2       10 UNK         0.4903 
     24 O          24.6249  -44.7873  -59.2876 O.2       10 UNK        -0.4860 
     25 CA         25.4162  -46.9439  -58.5836 C.3       9 UNK         0.0227 
     26 CB         25.1111  -47.4419  -60.0123 C.3       9 UNK        -0.1964 
     27 N          26.7346  -47.4130  -58.1436 N.am      9 UNK        -0.4231 
     28 C          27.9436  -47.0795  -58.6266 C.2       9 UNK         0.5014 
     29 O          28.1207  -46.2499  -59.5194 O.2       9 UNK        -0.5270 
     30 CA         29.1744  -47.7964  -58.0249 C.3       8 UNK         0.0284 
     31 CB         30.0841  -46.8082  -57.2767 C.3       8 UNK        -0.1977 
     32 N          28.8327  -48.8986  -57.1218 N.am      8 UNK        -0.4342 
     33 C          28.2990  -50.0692  -57.4987 C.2       8 UNK         0.5039 
     34 O          28.1453  -50.4110  -58.6713 O.2       8 UNK        -0.5547 
     35 CA         27.7912  -50.9794  -56.3707 C.3       7 UNK         0.0281 
     36 CB         28.9260  -51.8717  -55.8530 C.3       7 UNK        -0.1963 
     37 N          27.2159  -50.2044  -55.2646 N.am      7 UNK        -0.4444 
     38 C          26.0360  -49.5687  -55.3270 C.2       7 UNK         0.5104 
     39 O          25.2955  -49.6034  -56.3085 O.2       7 UNK        -0.5100 
     40 CA         25.6273  -48.7184  -54.1130 C.3       6 UNK         0.0396 
     41 CB         24.9561  -49.5928  -53.0425 C.3       6 UNK        -0.1801 
     42 N          26.7562  -47.9991  -53.5216 N.am      6 UNK        -0.4747 
     43 C          27.3790  -46.9507  -54.0816 C.2       6 UNK         0.5012 
     44 O          27.0332  -46.4343  -55.1462 O.2       6 UNK        -0.5003 
     45 CA         28.6156  -46.4086  -53.3340 C.3       5 UNK         0.0782 
     46 C46        28.2163  -45.2564  -52.3787 C.3       11 UNK        -0.0868 
     47 S47        29.6521  -44.5635  -51.4818 S.3       11 UNK        -0.2515 
     48 C48        29.9124  -42.9680  -52.3167 C.3       11 UNK         0.0199 
     49 N          29.3621  -47.4548  -52.6237 N.am      5 UNK        -0.4607 
     50 C          29.9621  -48.5114  -53.1812 C.2       4 UNK         0.5031 
     51 O          29.8667  -48.8054  -54.3751 O.2       4 UNK        -0.5119 
     52 CA         30.7795  -49.3799  -52.2168 C.3       4 UNK         0.0263 
     53 CB         29.8995  -50.4210  -51.4947 C.3       4 UNK        -0.1967 
     54 N          31.9559  -49.9441  -52.8857 N.am      4 UNK        -0.4237 
     55 C          32.1109  -51.1028  -53.5466 C.2       3 UNK         0.4908 
     56 O          31.2832  -52.0127  -53.5741 O.2       3 UNK        -0.5102 
     57 CA         33.4325  -51.2959  -54.3184 C.3       3 UNK         0.0241 
     58 CB         33.1900  -51.1205  -55.8268 C.3       3 UNK        -0.1971 
     59 N          34.4979  -50.3821  -53.8934 N.am      3 UNK        -0.4139 
     60 C          35.1283  -50.4532  -52.7098 C.2       2 UNK         0.5016 
     61 O          34.9683  -51.3758  -51.9100 O.2       2 UNK        -0.5319 
     62 CA         36.0700  -49.2943  -52.3257 C.3       2 UNK         0.0286 
     63 CB         37.5386  -49.7225  -52.4799 C.3       2 UNK        -0.1963 
     64 N          35.8547  -48.0564  -53.0822 N.am      2 UNK        -0.4790 
     65 C          34.7265  -47.3287  -53.1097 C.2       1 UNK         0.5024 
     66 O          33.7244  -47.6050  -52.4499 O.2       1 UNK        -0.4888 
     67 H67        37.2426  -46.2926  -57.1788 H         1 UNK         0.0892 
     68 H68        37.1982  -48.0549  -57.2750 H         1 UNK         0.0892 
     69 H69        36.0667  -47.0894  -58.2262 H         1 UNK         0.0892 
     70 H70        36.3190  -45.5275  -55.2839 H         1 UNK         0.3107 
     71 H71        33.6864  -46.0815  -54.4797 H         1 UNK         0.0773 
     72 H72        34.1787  -44.7038  -52.4968 H         1 UNK         0.0680 
     73 H73        35.8915  -44.8784  -52.7322 H         1 UNK         0.0680 
     74 H74        34.0093  -44.3803  -56.1389 H         1 UNK         0.0650 
     75 H75        34.0342  -42.6564  -56.3168 H         1 UNK         0.0650 
     76 H76        32.4953  -43.1944  -53.1184 H         1 UNK         0.1397 
     77 H77        28.5005  -43.0971  -54.6397 H         1 UNK         0.1363 
     78 H78        31.7894  -43.4969  -57.3472 H         1 UNK         0.1355 
     79 H79        29.5849  -43.4429  -58.2333 H         1 UNK         0.0707 
     80 H80        28.4511  -44.2376  -57.1700 H         1 UNK         0.0707 
     81 H81        26.7774  -43.1589  -58.9053 H         1 UNK         0.1034 
     82 H82        25.8882  -41.7613  -58.4215 H         1 UNK         0.1034 
     83 H83        26.2458  -43.3955  -56.0272 H         1 UNK         0.0482 
     84 H84        23.4348  -44.6880  -56.4259 H         1 UNK         0.3460 
     85 H85        22.4027  -43.3140  -56.1111 H         1 UNK         0.3460 
     86 H86        26.1895  -45.4791  -56.6287 H         1 UNK         0.2989 
     87 H87        24.6924  -47.4104  -57.9142 H         1 UNK         0.0559 
     88 H88        25.7650  -46.9771  -60.7509 H         1 UNK         0.0848 
     89 H89        24.0837  -47.2118  -60.2970 H         1 UNK         0.0848 
     90 H90        25.2327  -48.5225  -60.0891 H         1 UNK         0.0848 
     91 H91        26.7113  -48.0909  -57.3940 H         1 UNK         0.3144 
     92 H92        29.7417  -48.2118  -58.8603 H         1 UNK         0.0727 
     93 H93        30.9732  -47.3026  -56.8839 H         1 UNK         0.0790 
     94 H94        29.5657  -46.3407  -56.4405 H         1 UNK         0.0790 
     95 H95        30.4240  -46.0114  -57.9390 H         1 UNK         0.0790 
     96 H96        29.0079  -48.7499  -56.1307 H         1 UNK         0.3215 
     97 H97        27.0097  -51.6235  -56.7805 H         1 UNK         0.0863 
     98 H98        29.7747  -51.2754  -55.5204 H         1 UNK         0.0808 
     99 H99        29.2877  -52.5364  -56.6384 H         1 UNK         0.0808 
    100 H100       28.6033  -52.4959  -55.0197 H         1 UNK         0.0808 
    101 H101       27.7948  -50.0794  -54.4463 H         1 UNK         0.3118 
    102 H102       24.8970  -47.9811  -54.4541 H         1 UNK         0.0546 
    103 H103       24.5909  -48.9908  -52.2103 H         1 UNK         0.0828 
    104 H104       25.6394  -50.3423  -52.6411 H         1 UNK         0.0828 
    105 H105       24.0974  -50.1238  -53.4562 H         1 UNK         0.0828 
    106 H106       27.1099  -48.3450  -52.6412 H         1 UNK         0.3005 
    107 H107       29.2868  -46.0017  -54.0928 H         1 UNK         0.1257 
    108 H108       27.5040  -45.6130  -51.6321 H         1 UNK         0.0775 
    109 H109       27.7025  -44.4606  -52.9198 H         1 UNK         0.0775 
    110 H110       28.9797  -42.4015  -52.3252 H         1 UNK         0.0840 
    111 H111       30.6159  -42.3767  -51.7286 H         1 UNK         0.0840 
    112 H112       29.5013  -47.2840  -51.6379 H         1 UNK         0.2987 
    113 H113       31.1930  -48.7187  -51.4532 H         1 UNK         0.0785 
    114 H114       30.4971  -51.0792  -50.8640 H         1 UNK         0.0798 
    115 H115       29.1688  -49.9314  -50.8503 H         1 UNK         0.0798 
    116 H116       29.3402  -51.0406  -52.1965 H         1 UNK         0.0798 
    117 H117       32.7267  -49.2864  -52.9394 H         1 UNK         0.3079 
    118 H118       33.7704  -52.3193  -54.1416 H         1 UNK         0.0794 
    119 H119       32.4500  -51.8355  -56.1892 H         1 UNK         0.0786 
    120 H120       34.1038  -51.2798  -56.3994 H         1 UNK         0.0786 
    121 H121       32.8170  -50.1219  -56.0601 H         1 UNK         0.0786 
    122 H122       34.6933  -49.5984  -54.5083 H         1 UNK         0.3032 
    123 H123       35.8839  -49.0720  -51.2726 H         1 UNK         0.1094 
    124 H124       37.7898  -49.9356  -53.5197 H         1 UNK         0.0794 
    125 H125       38.2184  -48.9500  -52.1199 H         1 UNK         0.0794 
    126 H126       37.7453  -50.6255  -51.9034 H         1 UNK         0.0794 
    127 H127       36.6188  -47.7508  -53.6677 H         1 UNK         0.3016 
@<TRIPOS>BOND
     1    1    2 1    
     2    1   67 1    
     3    1   68 1    
     4    1   69 1    
     5    2    3 2    
     6    2    4 am   BACKBONE|DICT|INTERRES
     7    4    5 1    
     8    4   70 1    
     9    5    6 1    
    10    5   65 1    
    11    5   71 1    
    12    6    7 1    
    13    6   72 1    
    14    6   73 1    
    15    7    8 1    
    16    8    9 1    
    17    8   74 1    
    18    8   75 1    
    19    9   10 ar   
    20    9   14 ar   
    21   10   11 ar   
    22   10   76 1    
    23   11   12 ar   
    24   11   48 1    
    25   12   13 ar   
    26   12   77 1    
    27   13   14 ar   
    28   13   15 1    
    29   14   78 1    
    30   15   16 1    
    31   15   79 1    
    32   15   80 1    
    33   16   17 1    
    34   17   18 1    
    35   17   81 1    
    36   17   82 1    
    37   18   19 1    
    38   18   22 1    
    39   18   83 1    
    40   19   20 am   BACKBONE|DICT|INTERRES
    41   19   21 2    
    42   20   84 1    
    43   20   85 1    
    44   22   23 am   BACKBONE|DICT|INTERRES
    45   22   86 1    
    46   23   24 2    
    47   23   25 1    
    48   25   26 1    
    49   25   27 1    
    50   25   87 1    
    51   26   88 1    
    52   26   89 1    
    53   26   90 1    
    54   27   28 am   BACKBONE|DICT|INTERRES
    55   27   91 1    
    56   28   29 2    
    57   28   30 1    
    58   30   31 1    
    59   30   32 1    
    60   30   92 1    
    61   31   93 1    
    62   31   94 1    
    63   31   95 1    
    64   32   33 am   BACKBONE|DICT|INTERRES
    65   32   96 1    
    66   33   34 2    
    67   33   35 1    
    68   35   36 1    
    69   35   37 1    
    70   35   97 1    
    71   36   98 1    
    72   36   99 1    
    73   36  100 1    
    74   37   38 am   BACKBONE|DICT|INTERRES
    75   37  101 1    
    76   38   39 2    
    77   38   40 1    
    78   40   41 1    
    79   40   42 1    
    80   40  102 1    
    81   41  103 1    
    82   41  104 1    
    83   41  105 1    
    84   42   43 am   BACKBONE|DICT|INTERRES
    85   42  106 1    
    86   43   44 2    
    87   43   45 1    
    88   45   46 1    
    89   45   49 1    
    90   45  107 1    
    91   46   47 1    
    92   46  108 1    
    93   46  109 1    
    94   47   48 1    
    95   48  110 1    
    96   48  111 1    
    97   49   50 am   BACKBONE|DICT|INTERRES
    98   49  112 1    
    99   50   51 2    
   100   50   52 1    
   101   52   53 1    
   102   52   54 1    
   103   52  113 1    
   104   53  114 1    
   105   53  115 1    
   106   53  116 1    
   107   54   55 am   BACKBONE|DICT|INTERRES
   108   54  117 1    
   109   55   56 2    
   110   55   57 1    
   111   57   58 1    
   112   57   59 1    
   113   57  118 1    
   114   58  119 1    
   115   58  120 1    
   116   58  121 1    
   117   59   60 am   BACKBONE|DICT|INTERRES
   118   59  122 1    
   119   60   61 2    
   120   60   62 1    
   121   62   63 1    
   122   62   64 1    
   123   62  123 1    
   124   63  124 1    
   125   63  125 1    
   126   63  126 1    
   127   64   65 am   BACKBONE|DICT|INTERRES
   128   64  127 1    
   129   65   66 2    
@<TRIPOS>SUBSTRUCTURE
     1 UNK         1 GROUP             0       ****    0 ROOT    
