@<TRIPOS>MOLECULE
3R134
127   129    1
SMALL
USER_CHARGES


@<TRIPOS>ATOM
      1 CA         30.1463  -43.5630  -52.8139 C.3       0 UNK        -0.1968 
      2 C          31.3234  -43.5886  -51.8489 C.2       0 UNK         0.4852 
      3 O          31.2132  -43.0783  -50.7328 O.2       0 UNK        -0.5359 
      4 N          32.4475  -44.1780  -52.2744 N.am      1 UNK        -0.4300 
      5 CA         33.6381  -44.4215  -51.4563 C.3       1 UNK         0.0863 
      6 C6         34.9190  -44.4987  -52.3314 C.3       11 UNK        -0.0953 
      7 S7         34.8621  -45.7767  -53.6375 S.3       11 UNK        -0.2369 
      8 C8         34.6859  -44.7915  -55.1582 C.3       11 UNK         0.0226 
      9 C9         33.5839  -45.3318  -56.0598 C.ar      11 UNK        -0.0699 
     10 C10        33.8621  -46.3248  -57.0063 C.ar      11 UNK        -0.0804 
     11 C11        32.8715  -46.7659  -57.8924 C.ar      11 UNK        -0.0871 
     12 C12        31.5904  -46.2057  -57.8120 C.ar      11 UNK        -0.1008 
     13 C13        31.2966  -45.2230  -56.8649 C.ar      11 UNK        -0.0735 
     14 C14        32.2966  -44.7917  -55.9897 C.ar      11 UNK        -0.0945 
     15 C15        29.9227  -44.5722  -56.8399 C.3       11 UNK         0.0169 
     16 S16        28.7111  -45.5459  -55.8967 S.3       11 UNK        -0.2669 
     17 C17        27.3690  -44.3117  -55.8405 C.3       11 UNK        -0.0850 
     18 CA         26.0761  -44.8092  -55.1459 C.3       10 UNK         0.0855 
     19 C          25.0767  -43.6268  -54.9616 C.2       10 UNK         0.5543 
     20 N          23.9226  -43.6086  -55.6205 N.am      10 UNK        -0.7343 
     21 O          25.3566  -42.7064  -54.1975 O.2       10 UNK        -0.5027 
     22 N          25.4942  -45.9812  -55.8200 N.am      10 UNK        -0.4495 
     23 C          24.5831  -46.7872  -55.2524 C.2       10 UNK         0.4903 
     24 O          24.2783  -46.7235  -54.0603 O.2       10 UNK        -0.4860 
     25 CA         23.8838  -47.8346  -56.1457 C.3       9 UNK         0.0227 
     26 CB         22.4295  -48.1060  -55.7053 C.3       9 UNK        -0.1964 
     27 N          23.9426  -47.5373  -57.5815 N.am      9 UNK        -0.4231 
     28 C          23.4527  -46.4603  -58.2184 C.2       9 UNK         0.5014 
     29 O          22.8185  -45.5645  -57.6569 O.2       9 UNK        -0.5270 
     30 CA         23.7784  -46.3493  -59.7260 C.3       8 UNK         0.0284 
     31 CB         23.6561  -44.9044  -60.2560 C.3       8 UNK        -0.1977 
     32 N          25.0904  -46.9208  -60.0717 N.am      8 UNK        -0.4342 
     33 C          26.2699  -46.5731  -59.5368 C.2       8 UNK         0.5039 
     34 O          26.4190  -45.6488  -58.7362 O.2       8 UNK        -0.5547 
     35 CA         27.4695  -47.4761  -59.8636 C.3       7 UNK         0.0281 
     36 CB         28.6099  -46.6689  -60.5048 C.3       7 UNK        -0.1963 
     37 N          27.9498  -48.1207  -58.6384 N.am      7 UNK        -0.4444 
     38 C          27.2349  -48.9775  -57.8946 C.2       7 UNK         0.5104 
     39 O          26.1278  -49.4075  -58.2274 O.2       7 UNK        -0.5100 
     40 CA         27.8453  -49.3838  -56.5403 C.3       6 UNK         0.0396 
     41 CB         27.1468  -50.6018  -55.8983 C.3       6 UNK        -0.1801 
     42 N          29.2976  -49.5794  -56.6010 N.am      6 UNK        -0.4747 
     43 C          29.9709  -50.5225  -57.2822 C.2       6 UNK         0.5012 
     44 O          29.4300  -51.3775  -57.9846 O.2       6 UNK        -0.5003 
     45 CA         31.5126  -50.5211  -57.1541 C.3       5 UNK         0.0782 
     46 C46        32.2352  -50.4044  -58.5193 C.3       11 UNK        -0.0868 
     47 S47        31.8690  -48.8863  -59.4672 S.3       11 UNK        -0.2515 
     48 C48        33.2321  -47.7650  -58.9923 C.3       11 UNK         0.0199 
     49 N          32.0023  -49.5182  -56.2037 N.am      5 UNK        -0.4607 
     50 C          32.0517  -49.6891  -54.8784 C.2       4 UNK         0.5031 
     51 O          31.6987  -50.7188  -54.2997 O.2       4 UNK        -0.5119 
     52 CA         32.5162  -48.4710  -54.0707 C.3       4 UNK         0.0263 
     53 CB         31.3115  -47.5842  -53.7199 C.3       4 UNK        -0.1967 
     54 N          33.2295  -48.8341  -52.8445 N.am      4 UNK        -0.4237 
     55 C          34.4103  -49.4693  -52.8066 C.2       3 UNK         0.4908 
     56 O          35.0390  -49.8068  -53.8119 O.2       3 UNK        -0.5102 
     57 CA         34.9968  -49.7331  -51.4104 C.3       3 UNK         0.0241 
     58 CB         36.4505  -50.2440  -51.4472 C.3       3 UNK        -0.1971 
     59 N          34.9318  -48.5099  -50.6118 N.am      3 UNK        -0.4139 
     60 C          34.4947  -48.4285  -49.3493 C.2       2 UNK         0.5016 
     61 O          34.1403  -49.4025  -48.6836 O.2       2 UNK        -0.5319 
     62 CA         34.4329  -47.0256  -48.7102 C.3       2 UNK         0.0286 
     63 CB         35.6029  -46.8331  -47.7310 C.3       2 UNK        -0.1963 
     64 N          34.4219  -45.9075  -49.6643 N.am      2 UNK        -0.4790 
     65 C          33.4520  -45.6676  -50.5586 C.2       1 UNK         0.5024 
     66 O          32.4689  -46.4005  -50.6952 O.2       1 UNK        -0.4888 
     67 H67        30.2674  -44.2889  -53.6168 H         1 UNK         0.0892 
     68 H68        30.0410  -42.5730  -53.2566 H         1 UNK         0.0892 
     69 H69        29.2220  -43.8025  -52.2888 H         1 UNK         0.0892 
     70 H70        32.4697  -44.6176  -53.1817 H         1 UNK         0.3107 
     71 H71        33.7606  -43.5729  -50.7796 H         1 UNK         0.0773 
     72 H72        35.7992  -44.6886  -51.7152 H         1 UNK         0.0680 
     73 H73        35.1054  -43.5233  -52.7820 H         1 UNK         0.0680 
     74 H74        34.4786  -43.7476  -54.9205 H         1 UNK         0.0650 
     75 H75        35.6386  -44.7937  -55.6898 H         1 UNK         0.0650 
     76 H76        34.8643  -46.7266  -57.0742 H         1 UNK         0.1397 
     77 H77        30.8240  -46.5037  -58.5116 H         1 UNK         0.1363 
     78 H78        32.0827  -44.0033  -55.2825 H         1 UNK         0.1355 
     79 H79        29.5563  -44.4382  -57.8589 H         1 UNK         0.0707 
     80 H80        29.9964  -43.5720  -56.4100 H         1 UNK         0.0707 
     81 H81        27.1477  -43.9832  -56.8576 H         1 UNK         0.1034 
     82 H82        27.7590  -43.4346  -55.3199 H         1 UNK         0.1034 
     83 H83        26.3572  -45.1216  -54.1382 H         1 UNK         0.0482 
     84 H84        23.2915  -42.8357  -55.4829 H         1 UNK         0.3460 
     85 H85        23.6702  -44.3546  -56.2599 H         1 UNK         0.3460 
     86 H86        25.6995  -46.0612  -56.8104 H         1 UNK         0.2989 
     87 H87        24.4416  -48.7606  -56.0109 H         1 UNK         0.0559 
     88 H88        22.3918  -48.4806  -54.6816 H         1 UNK         0.0848 
     89 H89        21.9558  -48.8561  -56.3384 H         1 UNK         0.0848 
     90 H90        21.8202  -47.2024  -55.7417 H         1 UNK         0.0848 
     91 H91        24.5019  -48.1924  -58.1204 H         1 UNK         0.3144 
     92 H92        23.0315  -46.9553  -60.2410 H         1 UNK         0.0727 
     93 H93        23.8787  -44.8520  -61.3216 H         1 UNK         0.0790 
     94 H94        24.3337  -44.2250  -59.7376 H         1 UNK         0.0790 
     95 H95        22.6443  -44.5209  -60.1182 H         1 UNK         0.0790 
     96 H96        25.0666  -47.7175  -60.6947 H         1 UNK         0.3215 
     97 H97        27.1630  -48.2575  -60.5621 H         1 UNK         0.0863 
     98 H98        29.4697  -47.3004  -60.7286 H         1 UNK         0.0808 
     99 H99        28.9444  -45.8569  -59.8585 H         1 UNK         0.0808 
    100 H100       28.2851  -46.2200  -61.4442 H         1 UNK         0.0808 
    101 H101       28.8303  -47.7968  -58.2687 H         1 UNK         0.3118 
    102 H102       27.6844  -48.5335  -55.8758 H         1 UNK         0.0546 
    103 H103       27.6009  -50.8607  -54.9419 H         1 UNK         0.0828 
    104 H104       27.1916  -51.4818  -56.5403 H         1 UNK         0.0828 
    105 H105       26.0935  -50.3980  -55.7085 H         1 UNK         0.0828 
    106 H106       29.8473  -48.9262  -56.0620 H         1 UNK         0.3005 
    107 H107       31.7645  -51.5066  -56.7544 H         1 UNK         0.1257 
    108 H108       31.9630  -51.2531  -59.1496 H         1 UNK         0.0775 
    109 H109       33.3129  -50.4947  -58.3770 H         1 UNK         0.0775 
    110 H110       34.1115  -48.3473  -58.7132 H         1 UNK         0.0840 
    111 H111       33.5193  -47.1942  -59.8762 H         1 UNK         0.0840 
    112 H112       32.2904  -48.6353  -56.6042 H         1 UNK         0.2987 
    113 H113       33.2036  -47.8976  -54.6929 H         1 UNK         0.0785 
    114 H114       31.6250  -46.6757  -53.2108 H         1 UNK         0.0798 
    115 H115       30.6000  -48.1020  -53.0755 H         1 UNK         0.0798 
    116 H116       30.7775  -47.2753  -54.6183 H         1 UNK         0.0798 
    117 H117       32.7873  -48.5774  -51.9725 H         1 UNK         0.3079 
    118 H118       34.3739  -50.5101  -50.9619 H         1 UNK         0.0794 
    119 H119       36.5259  -51.1732  -52.0134 H         1 UNK         0.0786 
    120 H120       36.8235  -50.4468  -50.4432 H         1 UNK         0.0786 
    121 H121       37.1195  -49.5195  -51.9133 H         1 UNK         0.0786 
    122 H122       35.1779  -47.6533  -51.0886 H         1 UNK         0.3032 
    123 H123       33.5008  -46.9820  -48.1419 H         1 UNK         0.1094 
    124 H124       35.5190  -45.8900  -47.1906 H         1 UNK         0.0794 
    125 H125       35.6237  -47.6289  -46.9849 H         1 UNK         0.0794 
    126 H126       36.5651  -46.8438  -48.2447 H         1 UNK         0.0794 
    127 H127       35.2009  -45.2662  -49.6094 H         1 UNK         0.3016 
@<TRIPOS>BOND
     1    1    2 1    
     2    1   67 1    
     3    1   68 1    
     4    1   69 1    
     5    2    3 2    
     6    2    4 am   BACKBONE|DICT|INTERRES
     7    4    5 1    
     8    4   70 1    
     9    5    6 1    
    10    5   65 1    
    11    5   71 1    
    12    6    7 1    
    13    6   72 1    
    14    6   73 1    
    15    7    8 1    
    16    8    9 1    
    17    8   74 1    
    18    8   75 1    
    19    9   10 ar   
    20    9   14 ar   
    21   10   11 ar   
    22   10   76 1    
    23   11   12 ar   
    24   11   48 1    
    25   12   13 ar   
    26   12   77 1    
    27   13   14 ar   
    28   13   15 1    
    29   14   78 1    
    30   15   16 1    
    31   15   79 1    
    32   15   80 1    
    33   16   17 1    
    34   17   18 1    
    35   17   81 1    
    36   17   82 1    
    37   18   19 1    
    38   18   22 1    
    39   18   83 1    
    40   19   20 am   BACKBONE|DICT|INTERRES
    41   19   21 2    
    42   20   84 1    
    43   20   85 1    
    44   22   23 am   BACKBONE|DICT|INTERRES
    45   22   86 1    
    46   23   24 2    
    47   23   25 1    
    48   25   26 1    
    49   25   27 1    
    50   25   87 1    
    51   26   88 1    
    52   26   89 1    
    53   26   90 1    
    54   27   28 am   BACKBONE|DICT|INTERRES
    55   27   91 1    
    56   28   29 2    
    57   28   30 1    
    58   30   31 1    
    59   30   32 1    
    60   30   92 1    
    61   31   93 1    
    62   31   94 1    
    63   31   95 1    
    64   32   33 am   BACKBONE|DICT|INTERRES
    65   32   96 1    
    66   33   34 2    
    67   33   35 1    
    68   35   36 1    
    69   35   37 1    
    70   35   97 1    
    71   36   98 1    
    72   36   99 1    
    73   36  100 1    
    74   37   38 am   BACKBONE|DICT|INTERRES
    75   37  101 1    
    76   38   39 2    
    77   38   40 1    
    78   40   41 1    
    79   40   42 1    
    80   40  102 1    
    81   41  103 1    
    82   41  104 1    
    83   41  105 1    
    84   42   43 am   BACKBONE|DICT|INTERRES
    85   42  106 1    
    86   43   44 2    
    87   43   45 1    
    88   45   46 1    
    89   45   49 1    
    90   45  107 1    
    91   46   47 1    
    92   46  108 1    
    93   46  109 1    
    94   47   48 1    
    95   48  110 1    
    96   48  111 1    
    97   49   50 am   BACKBONE|DICT|INTERRES
    98   49  112 1    
    99   50   51 2    
   100   50   52 1    
   101   52   53 1    
   102   52   54 1    
   103   52  113 1    
   104   53  114 1    
   105   53  115 1    
   106   53  116 1    
   107   54   55 am   BACKBONE|DICT|INTERRES
   108   54  117 1    
   109   55   56 2    
   110   55   57 1    
   111   57   58 1    
   112   57   59 1    
   113   57  118 1    
   114   58  119 1    
   115   58  120 1    
   116   58  121 1    
   117   59   60 am   BACKBONE|DICT|INTERRES
   118   59  122 1    
   119   60   61 2    
   120   60   62 1    
   121   62   63 1    
   122   62   64 1    
   123   62  123 1    
   124   63  124 1    
   125   63  125 1    
   126   63  126 1    
   127   64   65 am   BACKBONE|DICT|INTERRES
   128   64  127 1    
   129   65   66 2    
@<TRIPOS>SUBSTRUCTURE
     1 UNK         1 GROUP             0       ****    0 ROOT    
