@<TRIPOS>MOLECULE
3R134
127   129    1
SMALL
USER_CHARGES


@<TRIPOS>ATOM
      1 CA         32.6279  -43.9843  -47.3568 C.3       0 UNK        -0.1968 
      2 C          33.8802  -44.4730  -48.0698 C.2       0 UNK         0.4852 
      3 O          34.8384  -44.8806  -47.4117 O.2       0 UNK        -0.5359 
      4 N          33.8801  -44.4326  -49.4091 N.am      1 UNK        -0.4300 
      5 CA         34.9860  -44.8810  -50.2650 C.3       1 UNK         0.0863 
      6 C6         34.8549  -44.3213  -51.7053 C.3       11 UNK        -0.0953 
      7 S7         33.3321  -44.8529  -52.5627 S.3       11 UNK        -0.2369 
      8 C8         33.0980  -43.4995  -53.7498 C.3       11 UNK         0.0226 
      9 C9         31.9759  -43.8430  -54.7142 C.ar      11 UNK        -0.0699 
     10 C10        32.2658  -44.4038  -55.9607 C.ar      11 UNK        -0.0804 
     11 C11        31.2358  -44.7778  -56.8293 C.ar      11 UNK        -0.0871 
     12 C12        29.9061  -44.5762  -56.4434 C.ar      11 UNK        -0.1008 
     13 C13        29.6047  -43.9948  -55.2063 C.ar      11 UNK        -0.0735 
     14 C14        30.6448  -43.6297  -54.3474 C.ar      11 UNK        -0.0945 
     15 C15        28.1601  -43.7995  -54.7671 C.3       11 UNK         0.0169 
     16 S16        27.5430  -42.1210  -55.1148 S.3       11 UNK        -0.2669 
     17 C17        27.2094  -42.2149  -56.9066 C.3       11 UNK        -0.0850 
     18 CA         25.8080  -42.8156  -57.2319 C.3       10 UNK         0.0855 
     19 C          24.6963  -41.7434  -57.4254 C.2       10 UNK         0.5543 
     20 N          23.7636  -41.9223  -58.3539 N.am      10 UNK        -0.7343 
     21 O          24.6656  -40.7380  -56.7204 O.2       10 UNK        -0.5027 
     22 N          25.8902  -43.7794  -58.3419 N.am      10 UNK        -0.4495 
     23 C          26.0757  -45.0960  -58.2027 C.2       10 UNK         0.4903 
     24 O          26.1525  -45.6716  -57.1167 O.2       10 UNK        -0.4860 
     25 CA         26.2508  -45.8891  -59.5058 C.3       9 UNK         0.0227 
     26 CB         27.6420  -45.6276  -60.1085 C.3       9 UNK        -0.1964 
     27 N          26.1191  -47.3244  -59.2616 N.am      9 UNK        -0.4231 
     28 C          24.9739  -48.0139  -59.3155 C.2       9 UNK         0.5014 
     29 O          23.8876  -47.5155  -59.6154 O.2       9 UNK        -0.5270 
     30 CA         25.0471  -49.5143  -58.9990 C.3       8 UNK         0.0284 
     31 CB         25.6966  -50.2864  -60.1610 C.3       8 UNK        -0.1977 
     32 N          25.7871  -49.7837  -57.7627 N.am      8 UNK        -0.4342 
     33 C          25.3299  -50.5328  -56.7477 C.2       8 UNK         0.5039 
     34 O          24.2095  -51.0455  -56.7297 O.2       8 UNK        -0.5547 
     35 CA         26.2708  -50.7912  -55.5531 C.3       7 UNK         0.0281 
     36 CB         26.8113  -52.2299  -55.5991 C.3       7 UNK        -0.1963 
     37 N          27.4007  -49.8646  -55.4921 N.am      7 UNK        -0.4444 
     38 C          27.3155  -48.5861  -55.0992 C.2       7 UNK         0.5104 
     39 O          26.2948  -48.0914  -54.6209 O.2       7 UNK        -0.5100 
     40 CA         28.5659  -47.7041  -55.2820 C.3       6 UNK         0.0396 
     41 CB         29.1926  -47.3583  -53.9219 C.3       6 UNK        -0.1801 
     42 N          29.5967  -48.2774  -56.1550 N.am      6 UNK        -0.4747 
     43 C          29.4515  -48.5402  -57.4638 C.2       6 UNK         0.5012 
     44 O          28.3994  -48.3638  -58.0789 O.2       6 UNK        -0.5003 
     45 CA         30.6499  -49.1649  -58.2063 C.3       5 UNK         0.0782 
     46 C46        31.4245  -48.1110  -59.0361 C.3       11 UNK        -0.0868 
     47 S47        32.4416  -46.9744  -58.0270 S.3       11 UNK        -0.2515 
     48 C48        31.5665  -45.3822  -58.1873 C.3       11 UNK         0.0199 
     49 N          31.5355  -49.9412  -57.3322 N.am      5 UNK        -0.4607 
     50 C          31.1835  -51.0435  -56.6569 C.2       4 UNK         0.5031 
     51 O          30.0632  -51.5503  -56.7182 O.2       4 UNK        -0.5119 
     52 CA         32.2481  -51.6720  -55.7401 C.3       4 UNK         0.0263 
     53 CB         32.9681  -52.8194  -56.4665 C.3       4 UNK        -0.1967 
     54 N          33.2425  -50.7173  -55.2331 N.am      4 UNK        -0.4237 
     55 C          32.9666  -49.6992  -54.4066 C.2       3 UNK         0.4908 
     56 O          31.8296  -49.4157  -54.0243 O.2       3 UNK        -0.5102 
     57 CA         34.1532  -48.8269  -53.9694 C.3       3 UNK         0.0241 
     58 CB         34.2564  -47.5771  -54.8575 C.3       3 UNK        -0.1971 
     59 N          34.0085  -48.4121  -52.5742 N.am      3 UNK        -0.4139 
     60 C          34.2113  -49.2104  -51.5162 C.2       2 UNK         0.5016 
     61 O          34.6029  -50.3756  -51.6126 O.2       2 UNK        -0.5319 
     62 CA         33.9235  -48.6140  -50.1204 C.3       2 UNK         0.0286 
     63 CB         34.7481  -49.2861  -49.0013 C.3       2 UNK        -0.1963 
     64 N          34.0552  -47.1508  -50.0616 N.am      2 UNK        -0.4790 
     65 C          35.1610  -46.4169  -50.2760 C.2       1 UNK         0.5024 
     66 O          36.2734  -46.8940  -50.5039 O.2       1 UNK        -0.4888 
     67 H67        31.8632  -43.6497  -48.0575 H         1 UNK         0.0892 
     68 H68        32.2051  -44.7849  -46.7504 H         1 UNK         0.0892 
     69 H69        32.8722  -43.1508  -46.6987 H         1 UNK         0.0892 
     70 H70        33.0690  -44.0818  -49.8994 H         1 UNK         0.3107 
     71 H71        35.9064  -44.4714  -49.8428 H         1 UNK         0.0773 
     72 H72        35.7140  -44.6151  -52.3117 H         1 UNK         0.0680 
     73 H73        34.8765  -43.2309  -51.6710 H         1 UNK         0.0680 
     74 H74        34.0283  -43.3258  -54.2931 H         1 UNK         0.0650 
     75 H75        32.8679  -42.5770  -53.2147 H         1 UNK         0.0650 
     76 H76        33.2947  -44.5713  -56.2488 H         1 UNK         0.1397 
     77 H77        29.1030  -44.8775  -57.1016 H         1 UNK         0.1363 
     78 H78        30.4177  -43.1992  -53.3816 H         1 UNK         0.1355 
     79 H79        27.5104  -44.5350  -55.2392 H         1 UNK         0.0707 
     80 H80        28.0814  -43.9821  -53.6943 H         1 UNK         0.0707 
     81 H81        27.3208  -41.2163  -57.3335 H         1 UNK         0.1034 
     82 H82        28.0039  -42.7982  -57.3701 H         1 UNK         0.1034 
     83 H83        25.4614  -43.3681  -56.3566 H         1 UNK         0.0482 
     84 H84        23.7361  -42.7644  -58.9060 H         1 UNK         0.3460 
     85 H85        23.0462  -41.2233  -58.4688 H         1 UNK         0.3460 
     86 H86        25.8374  -43.3815  -59.2693 H         1 UNK         0.2989 
     87 H87        25.4912  -45.5639  -60.2199 H         1 UNK         0.0559 
     88 H88        28.4355  -45.9264  -59.4240 H         1 UNK         0.0848 
     89 H89        27.7872  -44.5710  -60.3366 H         1 UNK         0.0848 
     90 H90        27.7801  -46.1792  -61.0386 H         1 UNK         0.0848 
     91 H91        26.9622  -47.7848  -58.9236 H         1 UNK         0.3144 
     92 H92        24.0162  -49.8621  -58.9050 H         1 UNK         0.0727 
     93 H93        25.6578  -51.3621  -59.9889 H         1 UNK         0.0790 
     94 H94        26.7422  -50.0081  -60.2993 H         1 UNK         0.0790 
     95 H95        25.1776  -50.0898  -61.1002 H         1 UNK         0.0790 
     96 H96        26.7083  -49.3656  -57.6824 H         1 UNK         0.3215 
     97 H97        25.6803  -50.6775  -54.6413 H         1 UNK         0.0863 
     98 H98        27.4418  -52.4464  -54.7366 H         1 UNK         0.0808 
     99 H99        27.4008  -52.4106  -56.4991 H         1 UNK         0.0808 
    100 H100       25.9956  -52.9543  -55.5934 H         1 UNK         0.0808 
    101 H101       28.2860  -50.1990  -55.8521 H         1 UNK         0.3118 
    102 H102       28.2295  -46.7782  -55.7479 H         1 UNK         0.0546 
    103 H103       28.4835  -46.8198  -53.2921 H         1 UNK         0.0828 
    104 H104       30.0712  -46.7227  -54.0366 H         1 UNK         0.0828 
    105 H105       29.4956  -48.2543  -53.3794 H         1 UNK         0.0828 
    106 H106       30.4830  -48.4953  -55.7161 H         1 UNK         0.3005 
    107 H107       30.2151  -49.8749  -58.9141 H         1 UNK         0.1257 
    108 H108       30.7475  -47.5530  -59.6852 H         1 UNK         0.0775 
    109 H109       32.1038  -48.6270  -59.7164 H         1 UNK         0.0775 
    110 H110       32.2012  -44.6885  -58.7403 H         1 UNK         0.0840 
    111 H111       30.6609  -45.4975  -58.7812 H         1 UNK         0.0840 
    112 H112       32.4699  -49.5775  -57.2156 H         1 UNK         0.2987 
    113 H113       31.7228  -52.0900  -54.8786 H         1 UNK         0.0785 
    114 H114       32.2537  -53.5588  -56.8318 H         1 UNK         0.0798 
    115 H115       33.6575  -53.3404  -55.8018 H         1 UNK         0.0798 
    116 H116       33.5347  -52.4613  -57.3271 H         1 UNK         0.0798 
    117 H117       34.2015  -50.8748  -55.5093 H         1 UNK         0.3079 
    118 H118       35.0782  -49.3999  -54.0641 H         1 UNK         0.0794 
    119 H119       33.3299  -47.0005  -54.8513 H         1 UNK         0.0786 
    120 H120       34.4633  -47.8503  -55.8925 H         1 UNK         0.0786 
    121 H121       35.0619  -46.9193  -54.5303 H         1 UNK         0.0786 
    122 H122       33.6579  -47.4784  -52.4133 H         1 UNK         0.3032 
    123 H123       32.8722  -48.8312  -49.9240 H         1 UNK         0.1094 
    124 H124       35.8205  -49.1874  -49.1719 H         1 UNK         0.0794 
    125 H125       34.5219  -48.8532  -48.0269 H         1 UNK         0.0794 
    126 H126       34.5276  -50.3525  -48.9388 H         1 UNK         0.0794 
    127 H127       33.1973  -46.6434  -49.8935 H         1 UNK         0.3016 
@<TRIPOS>BOND
     1    1    2 1    
     2    1   67 1    
     3    1   68 1    
     4    1   69 1    
     5    2    3 2    
     6    2    4 am   BACKBONE|DICT|INTERRES
     7    4    5 1    
     8    4   70 1    
     9    5    6 1    
    10    5   65 1    
    11    5   71 1    
    12    6    7 1    
    13    6   72 1    
    14    6   73 1    
    15    7    8 1    
    16    8    9 1    
    17    8   74 1    
    18    8   75 1    
    19    9   10 ar   
    20    9   14 ar   
    21   10   11 ar   
    22   10   76 1    
    23   11   12 ar   
    24   11   48 1    
    25   12   13 ar   
    26   12   77 1    
    27   13   14 ar   
    28   13   15 1    
    29   14   78 1    
    30   15   16 1    
    31   15   79 1    
    32   15   80 1    
    33   16   17 1    
    34   17   18 1    
    35   17   81 1    
    36   17   82 1    
    37   18   19 1    
    38   18   22 1    
    39   18   83 1    
    40   19   20 am   BACKBONE|DICT|INTERRES
    41   19   21 2    
    42   20   84 1    
    43   20   85 1    
    44   22   23 am   BACKBONE|DICT|INTERRES
    45   22   86 1    
    46   23   24 2    
    47   23   25 1    
    48   25   26 1    
    49   25   27 1    
    50   25   87 1    
    51   26   88 1    
    52   26   89 1    
    53   26   90 1    
    54   27   28 am   BACKBONE|DICT|INTERRES
    55   27   91 1    
    56   28   29 2    
    57   28   30 1    
    58   30   31 1    
    59   30   32 1    
    60   30   92 1    
    61   31   93 1    
    62   31   94 1    
    63   31   95 1    
    64   32   33 am   BACKBONE|DICT|INTERRES
    65   32   96 1    
    66   33   34 2    
    67   33   35 1    
    68   35   36 1    
    69   35   37 1    
    70   35   97 1    
    71   36   98 1    
    72   36   99 1    
    73   36  100 1    
    74   37   38 am   BACKBONE|DICT|INTERRES
    75   37  101 1    
    76   38   39 2    
    77   38   40 1    
    78   40   41 1    
    79   40   42 1    
    80   40  102 1    
    81   41  103 1    
    82   41  104 1    
    83   41  105 1    
    84   42   43 am   BACKBONE|DICT|INTERRES
    85   42  106 1    
    86   43   44 2    
    87   43   45 1    
    88   45   46 1    
    89   45   49 1    
    90   45  107 1    
    91   46   47 1    
    92   46  108 1    
    93   46  109 1    
    94   47   48 1    
    95   48  110 1    
    96   48  111 1    
    97   49   50 am   BACKBONE|DICT|INTERRES
    98   49  112 1    
    99   50   51 2    
   100   50   52 1    
   101   52   53 1    
   102   52   54 1    
   103   52  113 1    
   104   53  114 1    
   105   53  115 1    
   106   53  116 1    
   107   54   55 am   BACKBONE|DICT|INTERRES
   108   54  117 1    
   109   55   56 2    
   110   55   57 1    
   111   57   58 1    
   112   57   59 1    
   113   57  118 1    
   114   58  119 1    
   115   58  120 1    
   116   58  121 1    
   117   59   60 am   BACKBONE|DICT|INTERRES
   118   59  122 1    
   119   60   61 2    
   120   60   62 1    
   121   62   63 1    
   122   62   64 1    
   123   62  123 1    
   124   63  124 1    
   125   63  125 1    
   126   63  126 1    
   127   64   65 am   BACKBONE|DICT|INTERRES
   128   64  127 1    
   129   65   66 2    
@<TRIPOS>SUBSTRUCTURE
     1 UNK         1 GROUP             0       ****    0 ROOT    
