@<TRIPOS>MOLECULE
3R134
127   129    1
SMALL
USER_CHARGES


@<TRIPOS>ATOM
      1 CA         38.0154  -44.8609  -47.2536 C.3       0 UNK        -0.1968 
      2 C          37.3382  -44.3389  -48.5125 C.2       0 UNK         0.4852 
      3 O          37.5114  -43.1696  -48.8599 O.2       0 UNK        -0.5359 
      4 N          36.5723  -45.1947  -49.1964 N.am      1 UNK        -0.4300 
      5 CA         35.8645  -44.9015  -50.4395 C.3       1 UNK         0.0863 
      6 C6         34.5233  -44.1639  -50.1802 C.3       11 UNK        -0.0953 
      7 S7         33.9037  -43.2840  -51.6519 S.3       11 UNK        -0.2369 
      8 C8         32.4563  -44.3032  -52.0678 C.3       11 UNK         0.0226 
      9 C9         31.8883  -43.9405  -53.4308 C.ar      11 UNK        -0.0699 
     10 C10        32.5982  -44.2705  -54.5883 C.ar      11 UNK        -0.0804 
     11 C11        32.0627  -44.0061  -55.8504 C.ar      11 UNK        -0.0871 
     12 C12        30.8230  -43.3684  -55.9508 C.ar      11 UNK        -0.1008 
     13 C13        30.0872  -43.0610  -54.8026 C.ar      11 UNK        -0.0735 
     14 C14        30.6315  -43.3370  -53.5434 C.ar      11 UNK        -0.0945 
     15 C15        28.6853  -42.4784  -54.9224 C.3       11 UNK         0.0169 
     16 S16        27.4581  -43.7729  -55.3161 S.3       11 UNK        -0.2669 
     17 C17        27.6269  -43.9177  -57.1303 C.3       11 UNK        -0.0850 
     18 CA         26.2581  -44.0205  -57.8510 C.3       10 UNK         0.0855 
     19 C          26.3907  -43.7332  -59.3783 C.2       10 UNK         0.5543 
     20 N          25.9233  -44.5906  -60.2779 N.am      10 UNK        -0.7343 
     21 O          26.9235  -42.6937  -59.7589 O.2       10 UNK        -0.5027 
     22 N          25.5804  -45.2881  -57.5334 N.am      10 UNK        -0.4495 
     23 C          24.2523  -45.4585  -57.5409 C.2       10 UNK         0.4903 
     24 O          23.4470  -44.5422  -57.7156 O.2       10 UNK        -0.4860 
     25 CA         23.7447  -46.9012  -57.3376 C.3       9 UNK         0.0227 
     26 CB         22.2620  -47.0756  -57.7288 C.3       9 UNK        -0.1964 
     27 N          24.5738  -47.9108  -58.0101 N.am      9 UNK        -0.4231 
     28 C          24.8829  -47.9747  -59.3171 C.2       9 UNK         0.5014 
     29 O          24.4810  -47.1596  -60.1483 O.2       9 UNK        -0.5270 
     30 CA         25.8228  -49.1027  -59.7866 C.3       8 UNK         0.0284 
     31 CB         27.0274  -48.5269  -60.5536 C.3       8 UNK        -0.1977 
     32 N          26.3191  -49.9090  -58.6708 N.am      8 UNK        -0.4342 
     33 C          25.7747  -51.0571  -58.2436 C.2       8 UNK         0.5039 
     34 O          24.8405  -51.6249  -58.8099 O.2       8 UNK        -0.5547 
     35 CA         26.3433  -51.6599  -56.9442 C.3       7 UNK         0.0281 
     36 CB         27.3505  -52.7760  -57.2629 C.3       7 UNK        -0.1963 
     37 N          26.9750  -50.6608  -56.0746 N.am      7 UNK        -0.4444 
     38 C          26.3124  -49.6708  -55.4553 C.2       7 UNK         0.5104 
     39 O          25.0903  -49.5385  -55.5068 O.2       7 UNK        -0.5100 
     40 CA         27.1442  -48.6052  -54.7207 C.3       6 UNK         0.0396 
     41 CB         27.1914  -48.9037  -53.2153 C.3       6 UNK        -0.1801 
     42 N          28.5057  -48.4701  -55.2472 N.am      6 UNK        -0.4747 
     43 C          28.8016  -48.0344  -56.4839 C.2       6 UNK         0.5012 
     44 O          27.9411  -47.6777  -57.2917 O.2       6 UNK        -0.5003 
     45 CA         30.2897  -48.0120  -56.9058 C.3       5 UNK         0.0782 
     46 C46        30.8090  -46.5622  -56.8169 C.3       11 UNK        -0.0868 
     47 S47        32.5465  -46.3221  -57.3286 S.3       11 UNK        -0.2515 
     48 C48        32.7615  -44.5162  -57.1045 C.3       11 UNK         0.0199 
     49 N          31.1180  -48.9507  -56.1360 N.am      5 UNK        -0.4607 
     50 C          30.9681  -50.2845  -56.1541 C.2       4 UNK         0.5031 
     51 O          30.1338  -50.8587  -56.8535 O.2       4 UNK        -0.5119 
     52 CA         31.8490  -51.1260  -55.2101 C.3       4 UNK         0.0263 
     53 CB         33.0728  -51.6665  -55.9663 C.3       4 UNK        -0.1967 
     54 N          32.3006  -50.4158  -54.0101 N.am      4 UNK        -0.4237 
     55 C          31.5071  -49.8400  -53.0947 C.2       3 UNK         0.4908 
     56 O          30.2788  -49.9076  -53.1234 O.2       3 UNK        -0.5102 
     57 CA         32.1825  -49.0122  -51.9830 C.3       3 UNK         0.0241 
     58 CB         32.2066  -49.8034  -50.6656 C.3       3 UNK        -0.1971 
     59 N          33.5406  -48.5359  -52.2815 N.am      3 UNK        -0.4139 
     60 C          33.8994  -47.7965  -53.3397 C.2       2 UNK         0.5016 
     61 O          33.1203  -47.4711  -54.2345 O.2       2 UNK        -0.5319 
     62 CA         35.3676  -47.3374  -53.3897 C.3       2 UNK         0.0286 
     63 CB         35.8199  -46.9849  -54.8195 C.3       2 UNK        -0.1963 
     64 N          35.5870  -46.1820  -52.5160 N.am      2 UNK        -0.4790 
     65 C          35.6752  -46.2367  -51.1809 C.2       1 UNK         0.5024 
     66 O          35.6111  -47.2891  -50.5370 O.2       1 UNK        -0.4888 
     67 H67        37.7718  -45.9060  -47.0630 H         1 UNK         0.0892 
     68 H68        39.0978  -44.7766  -47.3470 H         1 UNK         0.0892 
     69 H69        37.7011  -44.2769  -46.3890 H         1 UNK         0.0892 
     70 H70        36.4868  -46.1618  -48.9053 H         1 UNK         0.3107 
     71 H71        36.5143  -44.2711  -51.0513 H         1 UNK         0.0773 
     72 H72        33.7646  -44.8432  -49.7864 H         1 UNK         0.0680 
     73 H73        34.6612  -43.4035  -49.4100 H         1 UNK         0.0680 
     74 H74        32.7355  -45.3570  -52.0692 H         1 UNK         0.0650 
     75 H75        31.7021  -44.1850  -51.2882 H         1 UNK         0.0650 
     76 H76        33.5449  -44.7832  -54.5053 H         1 UNK         0.1397 
     77 H77        30.4029  -43.1745  -56.9268 H         1 UNK         0.1363 
     78 H78        30.0638  -43.1082  -52.6519 H         1 UNK         0.1355 
     79 H79        28.3972  -42.0051  -53.9825 H         1 UNK         0.0707 
     80 H80        28.6640  -41.6879  -55.6740 H         1 UNK         0.0707 
     81 H81        28.1773  -43.0496  -57.4950 H         1 UNK         0.1034 
     82 H82        28.2412  -44.7868  -57.3619 H         1 UNK         0.1034 
     83 H83        25.6390  -43.2059  -57.4700 H         1 UNK         0.0482 
     84 H84        26.0211  -44.3691  -61.2555 H         1 UNK         0.3460 
     85 H85        25.4388  -45.4393  -60.0064 H         1 UNK         0.3460 
     86 H86        26.1797  -46.0928  -57.4028 H         1 UNK         0.2989 
     87 H87        23.8289  -47.1017  -56.2687 H         1 UNK         0.0559 
     88 H88        21.6213  -46.4142  -57.1442 H         1 UNK         0.0848 
     89 H89        21.9217  -48.0952  -57.5482 H         1 UNK         0.0848 
     90 H90        22.0921  -46.8463  -58.7813 H         1 UNK         0.0848 
     91 H91        24.9387  -48.6315  -57.3984 H         1 UNK         0.3144 
     92 H92        25.2538  -49.7315  -60.4744 H         1 UNK         0.0727 
     93 H93        27.6022  -47.8292  -59.9438 H         1 UNK         0.0790 
     94 H94        26.7029  -47.9863  -61.4438 H         1 UNK         0.0790 
     95 H95        27.7011  -49.3169  -60.8858 H         1 UNK         0.0790 
     96 H96        27.0685  -49.4940  -58.1297 H         1 UNK         0.3215 
     97 H97        25.5083  -52.1004  -56.3949 H         1 UNK         0.0863 
     98 H98        27.7469  -53.2283  -56.3537 H         1 UNK         0.0808 
     99 H99        28.1920  -52.4059  -57.8495 H         1 UNK         0.0808 
    100 H100       26.8782  -53.5714  -57.8411 H         1 UNK         0.0808 
    101 H101       27.9858  -50.6839  -56.0119 H         1 UNK         0.3118 
    102 H102       26.6431  -47.6444  -54.8584 H         1 UNK         0.0546 
    103 H103       27.6300  -49.8809  -53.0107 H         1 UNK         0.0828 
    104 H104       26.1877  -48.9040  -52.7881 H         1 UNK         0.0828 
    105 H105       27.7726  -48.1546  -52.6775 H         1 UNK         0.0828 
    106 H106       29.2585  -48.7780  -54.6404 H         1 UNK         0.3005 
    107 H107       30.3264  -48.3250  -57.9516 H         1 UNK         0.1257 
    108 H108       30.2011  -45.9033  -57.4371 H         1 UNK         0.0775 
    109 H109       30.7008  -46.2183  -55.7865 H         1 UNK         0.0775 
    110 H110       33.8267  -44.2864  -57.0538 H         1 UNK         0.0840 
    111 H111       32.3798  -44.0031  -57.9885 H         1 UNK         0.0840 
    112 H112       31.8255  -48.5329  -55.5386 H         1 UNK         0.2987 
    113 H113       31.2464  -51.9741  -54.8786 H         1 UNK         0.0785 
    114 H114       32.7683  -52.2246  -56.8530 H         1 UNK         0.0798 
    115 H115       33.6576  -52.3450  -55.3448 H         1 UNK         0.0798 
    116 H116       33.7297  -50.8611  -56.2980 H         1 UNK         0.0798 
    117 H117       33.2969  -50.2955  -53.9059 H         1 UNK         0.3079 
    118 H118       31.5626  -48.1254  -51.8359 H         1 UNK         0.0794 
    119 H119       32.5718  -49.1909  -49.8408 H         1 UNK         0.0786 
    120 H120       32.8435  -50.6860  -50.7375 H         1 UNK         0.0786 
    121 H121       31.2060  -50.1439  -50.3946 H         1 UNK         0.0786 
    122 H122       34.2398  -48.6901  -51.5648 H         1 UNK         0.3032 
    123 H123       35.9890  -48.1671  -53.0442 H         1 UNK         0.1094 
    124 H124       35.2678  -46.1398  -55.2307 H         1 UNK         0.0794 
    125 H125       36.8812  -46.7381  -54.8501 H         1 UNK         0.0794 
    126 H126       35.6646  -47.8277  -55.4944 H         1 UNK         0.0794 
    127 H127       35.6164  -45.2769  -52.9641 H         1 UNK         0.3016 
@<TRIPOS>BOND
     1    1    2 1    
     2    1   67 1    
     3    1   68 1    
     4    1   69 1    
     5    2    3 2    
     6    2    4 am   BACKBONE|DICT|INTERRES
     7    4    5 1    
     8    4   70 1    
     9    5    6 1    
    10    5   65 1    
    11    5   71 1    
    12    6    7 1    
    13    6   72 1    
    14    6   73 1    
    15    7    8 1    
    16    8    9 1    
    17    8   74 1    
    18    8   75 1    
    19    9   10 ar   
    20    9   14 ar   
    21   10   11 ar   
    22   10   76 1    
    23   11   12 ar   
    24   11   48 1    
    25   12   13 ar   
    26   12   77 1    
    27   13   14 ar   
    28   13   15 1    
    29   14   78 1    
    30   15   16 1    
    31   15   79 1    
    32   15   80 1    
    33   16   17 1    
    34   17   18 1    
    35   17   81 1    
    36   17   82 1    
    37   18   19 1    
    38   18   22 1    
    39   18   83 1    
    40   19   20 am   BACKBONE|DICT|INTERRES
    41   19   21 2    
    42   20   84 1    
    43   20   85 1    
    44   22   23 am   BACKBONE|DICT|INTERRES
    45   22   86 1    
    46   23   24 2    
    47   23   25 1    
    48   25   26 1    
    49   25   27 1    
    50   25   87 1    
    51   26   88 1    
    52   26   89 1    
    53   26   90 1    
    54   27   28 am   BACKBONE|DICT|INTERRES
    55   27   91 1    
    56   28   29 2    
    57   28   30 1    
    58   30   31 1    
    59   30   32 1    
    60   30   92 1    
    61   31   93 1    
    62   31   94 1    
    63   31   95 1    
    64   32   33 am   BACKBONE|DICT|INTERRES
    65   32   96 1    
    66   33   34 2    
    67   33   35 1    
    68   35   36 1    
    69   35   37 1    
    70   35   97 1    
    71   36   98 1    
    72   36   99 1    
    73   36  100 1    
    74   37   38 am   BACKBONE|DICT|INTERRES
    75   37  101 1    
    76   38   39 2    
    77   38   40 1    
    78   40   41 1    
    79   40   42 1    
    80   40  102 1    
    81   41  103 1    
    82   41  104 1    
    83   41  105 1    
    84   42   43 am   BACKBONE|DICT|INTERRES
    85   42  106 1    
    86   43   44 2    
    87   43   45 1    
    88   45   46 1    
    89   45   49 1    
    90   45  107 1    
    91   46   47 1    
    92   46  108 1    
    93   46  109 1    
    94   47   48 1    
    95   48  110 1    
    96   48  111 1    
    97   49   50 am   BACKBONE|DICT|INTERRES
    98   49  112 1    
    99   50   51 2    
   100   50   52 1    
   101   52   53 1    
   102   52   54 1    
   103   52  113 1    
   104   53  114 1    
   105   53  115 1    
   106   53  116 1    
   107   54   55 am   BACKBONE|DICT|INTERRES
   108   54  117 1    
   109   55   56 2    
   110   55   57 1    
   111   57   58 1    
   112   57   59 1    
   113   57  118 1    
   114   58  119 1    
   115   58  120 1    
   116   58  121 1    
   117   59   60 am   BACKBONE|DICT|INTERRES
   118   59  122 1    
   119   60   61 2    
   120   60   62 1    
   121   62   63 1    
   122   62   64 1    
   123   62  123 1    
   124   63  124 1    
   125   63  125 1    
   126   63  126 1    
   127   64   65 am   BACKBONE|DICT|INTERRES
   128   64  127 1    
   129   65   66 2    
@<TRIPOS>SUBSTRUCTURE
     1 UNK         1 GROUP             0       ****    0 ROOT    
