@<TRIPOS>MOLECULE
3R134
127   129    1
SMALL
USER_CHARGES


@<TRIPOS>ATOM
      1 CA         37.7844  -46.7091  -53.6475 C.3       0 UNK        -0.1968 
      2 C          37.2001  -45.6114  -52.7604 C.2       0 UNK         0.4852 
      3 O          37.9353  -45.0384  -51.9578 O.2       0 UNK        -0.5359 
      4 N          35.9070  -45.2669  -52.8638 N.am      1 UNK        -0.4300 
      5 CA         34.8755  -45.8719  -53.7167 C.3       1 UNK         0.0863 
      6 C6         33.5491  -45.0810  -53.6532 C.3       11 UNK        -0.0953 
      7 S7         33.6967  -43.4183  -54.3870 S.3       11 UNK        -0.2369 
      8 C8         32.2883  -43.4096  -55.5558 C.3       11 UNK         0.0226 
      9 C9         30.8879  -43.4329  -54.9321 C.ar      11 UNK        -0.0699 
     10 C10        30.6651  -43.4538  -53.5495 C.ar      11 UNK        -0.0804 
     11 C11        29.3713  -43.5204  -53.0299 C.ar      11 UNK        -0.0871 
     12 C12        28.2768  -43.4927  -53.8978 C.ar      11 UNK        -0.1008 
     13 C13        28.4759  -43.4469  -55.2803 C.ar      11 UNK        -0.0735 
     14 C14        29.7816  -43.4407  -55.7867 C.ar      11 UNK        -0.0945 
     15 C15        27.2843  -43.4396  -56.2275 C.3       11 UNK         0.0169 
     16 S16        27.3632  -42.0425  -57.3968 S.3       11 UNK        -0.2669 
     17 C17        26.1304  -42.5251  -58.6574 C.3       11 UNK        -0.0850 
     18 CA         26.7216  -43.2930  -59.8727 C.3       10 UNK         0.0855 
     19 C          27.6980  -42.4312  -60.7246 C.2       10 UNK         0.5543 
     20 N          27.1720  -41.4915  -61.4988 N.am      10 UNK        -0.7343 
     21 O          28.9173  -42.5862  -60.6769 O.2       10 UNK        -0.5027 
     22 N          27.2792  -44.5817  -59.4489 N.am      10 UNK        -0.4495 
     23 C          27.5820  -45.6117  -60.2458 C.2       10 UNK         0.4903 
     24 O          27.4449  -45.6042  -61.4697 O.2       10 UNK        -0.4860 
     25 CA         28.0930  -46.8880  -59.5488 C.3       9 UNK         0.0227 
     26 CB         29.6279  -46.8749  -59.4704 C.3       9 UNK        -0.1964 
     27 N          27.5449  -47.1105  -58.2031 N.am      9 UNK        -0.4231 
     28 C          26.2446  -47.2367  -57.8971 C.2       9 UNK         0.5014 
     29 O          25.3291  -47.1471  -58.7178 O.2       9 UNK        -0.5270 
     30 CA         25.9354  -47.5370  -56.4192 C.3       8 UNK         0.0284 
     31 CB         24.4352  -47.4270  -56.0757 C.3       8 UNK        -0.1977 
     32 N          26.4722  -48.8389  -56.0098 N.am      8 UNK        -0.4342 
     33 C          26.2016  -50.0469  -56.5300 C.2       8 UNK         0.5039 
     34 O          25.3764  -50.2496  -57.4214 O.2       8 UNK        -0.5547 
     35 CA         26.9984  -51.2448  -55.9821 C.3       7 UNK         0.0281 
     36 CB         28.0365  -51.7051  -57.0195 C.3       7 UNK        -0.1963 
     37 N          27.6817  -50.9583  -54.7180 N.am      7 UNK        -0.4444 
     38 C          27.0866  -50.9369  -53.5180 C.2       7 UNK         0.5104 
     39 O          25.9007  -51.2133  -53.3355 O.2       7 UNK        -0.5100 
     40 CA         27.9549  -50.5021  -52.3228 C.3       6 UNK         0.0396 
     41 CB         28.8246  -51.6686  -51.8304 C.3       6 UNK        -0.1801 
     42 N          28.8016  -49.3370  -52.6057 N.am      6 UNK        -0.4747 
     43 C          28.3416  -48.1224  -52.9484 C.2       6 UNK         0.5012 
     44 O          27.1496  -47.8610  -53.1066 O.2       6 UNK        -0.5003 
     45 CA         29.3938  -47.0286  -53.2051 C.3       5 UNK         0.0782 
     46 C46        29.9302  -46.4142  -51.8850 C.3       11 UNK        -0.0868 
     47 S47        28.6809  -45.3585  -51.0613 S.3       11 UNK        -0.2515 
     48 C48        29.1708  -43.6636  -51.5286 C.3       11 UNK         0.0199 
     49 N          30.4587  -47.5561  -54.0610 N.am      5 UNK        -0.4607 
     50 C          30.3283  -47.7204  -55.3868 C.2       4 UNK         0.5031 
     51 O          29.3520  -47.3320  -56.0299 O.2       4 UNK        -0.5119 
     52 CA         31.4433  -48.4808  -56.1266 C.3       4 UNK         0.0263 
     53 CB         32.4389  -47.5065  -56.7751 C.3       4 UNK        -0.1967 
     54 N          32.1569  -49.4400  -55.2769 N.am      4 UNK        -0.4237 
     55 C          31.6037  -50.5678  -54.8035 C.2       3 UNK         0.4908 
     56 O          30.4558  -50.9198  -55.0655 O.2       3 UNK        -0.5102 
     57 CA         32.4348  -51.4317  -53.8389 C.3       3 UNK         0.0241 
     58 CB         33.2312  -52.4883  -54.6200 C.3       3 UNK        -0.1971 
     59 N          33.3451  -50.6691  -52.9837 N.am      3 UNK        -0.4139 
     60 C          32.9984  -49.6690  -52.1615 C.2       2 UNK         0.5016 
     61 O          31.8393  -49.2765  -52.0066 O.2       2 UNK        -0.5319 
     62 CA         34.1483  -48.9283  -51.4508 C.3       2 UNK         0.0286 
     63 CB         35.4623  -49.7389  -51.3721 C.3       2 UNK        -0.1963 
     64 N          34.4090  -47.6144  -52.0545 N.am      2 UNK        -0.4790 
     65 C          34.6177  -47.3446  -53.3540 C.2       1 UNK         0.5024 
     66 O          34.6278  -48.1913  -54.2483 O.2       1 UNK        -0.4888 
     67 H67        37.5787  -47.6916  -53.2234 H         1 UNK         0.0892 
     68 H68        37.3860  -46.6734  -54.6604 H         1 UNK         0.0892 
     69 H69        38.8660  -46.5984  -53.7215 H         1 UNK         0.0892 
     70 H70        35.5792  -44.5073  -52.2847 H         1 UNK         0.3107 
     71 H71        35.2303  -45.8474  -54.7489 H         1 UNK         0.0773 
     72 H72        32.7476  -45.6172  -54.1635 H         1 UNK         0.0680 
     73 H73        33.2211  -44.9718  -52.6181 H         1 UNK         0.0680 
     74 H74        32.3740  -42.5142  -56.1728 H         1 UNK         0.0650 
     75 H75        32.3920  -44.2596  -56.2319 H         1 UNK         0.0650 
     76 H76        31.4923  -43.4449  -52.8574 H         1 UNK         0.1397 
     77 H77        27.2741  -43.5347  -53.4944 H         1 UNK         0.1363 
     78 H78        29.9359  -43.4261  -56.8573 H         1 UNK         0.1355 
     79 H79        26.3453  -43.3804  -55.6746 H         1 UNK         0.0707 
     80 H80        27.2692  -44.3882  -56.7608 H         1 UNK         0.0707 
     81 H81        25.3494  -43.1233  -58.1850 H         1 UNK         0.1034 
     82 H82        25.6266  -41.6190  -58.9983 H         1 UNK         0.1034 
     83 H83        25.8835  -43.5358  -60.5294 H         1 UNK         0.0482 
     84 H84        26.1749  -41.3505  -61.5478 H         1 UNK         0.3460 
     85 H85        27.7858  -40.9143  -62.0525 H         1 UNK         0.3460 
     86 H86        27.4793  -44.6709  -58.4664 H         1 UNK         0.2989 
     87 H87        27.7900  -47.7377  -60.1636 H         1 UNK         0.0559 
     88 H88        29.9899  -46.0663  -58.8341 H         1 UNK         0.0848 
     89 H89        30.0695  -46.7356  -60.4581 H         1 UNK         0.0848 
     90 H90        30.0138  -47.8141  -59.0738 H         1 UNK         0.0848 
     91 H91        28.2220  -47.2067  -57.4457 H         1 UNK         0.3144 
     92 H92        26.4620  -46.7865  -55.8269 H         1 UNK         0.0727 
     93 H93        24.0535  -46.4339  -56.3153 H         1 UNK         0.0790 
     94 H94        24.2618  -47.5945  -55.0126 H         1 UNK         0.0790 
     95 H95        23.8350  -48.1486  -56.6310 H         1 UNK         0.0790 
     96 H96        27.1558  -48.8015  -55.2657 H         1 UNK         0.3215 
     97 H97        26.2926  -52.0624  -55.8195 H         1 UNK         0.0863 
     98 H98        28.5941  -52.5727  -56.6663 H         1 UNK         0.0808 
     99 H99        28.7543  -50.9159  -57.2478 H         1 UNK         0.0808 
    100 H100       27.5548  -51.9883  -57.9564 H         1 UNK         0.0808 
    101 H101       28.6867  -50.7916  -54.7735 H         1 UNK         0.3118 
    102 H102       27.2816  -50.2195  -51.5109 H         1 UNK         0.0546 
    103 H103       29.4850  -52.0375  -52.6144 H         1 UNK         0.0828 
    104 H104       28.2035  -52.5067  -51.5116 H         1 UNK         0.0828 
    105 H105       29.4401  -51.3783  -50.9787 H         1 UNK         0.0828 
    106 H106       29.8028  -49.4560  -52.4884 H         1 UNK         0.3005 
    107 H107       28.8948  -46.2332  -53.7628 H         1 UNK         0.1257 
    108 H108       30.8243  -45.8215  -52.0768 H         1 UNK         0.0775 
    109 H109       30.2441  -47.1935  -51.1880 H         1 UNK         0.0775 
    110 H110       28.4013  -42.9659  -51.1950 H         1 UNK         0.0840 
    111 H111       30.0793  -43.3951  -50.9871 H         1 UNK         0.0840 
    112 H112       31.2476  -47.9755  -53.5850 H         1 UNK         0.2987 
    113 H113       30.9617  -49.0439  -56.9292 H         1 UNK         0.0785 
    114 H114       33.0000  -46.9405  -56.0346 H         1 UNK         0.0798 
    115 H115       31.9248  -46.7854  -57.4113 H         1 UNK         0.0798 
    116 H116       33.1566  -48.0360  -57.4018 H         1 UNK         0.0798 
    117 H117       33.1012  -49.1939  -54.9926 H         1 UNK         0.3079 
    118 H118       31.7377  -51.9514  -53.1805 H         1 UNK         0.0794 
    119 H119       32.5712  -53.0879  -55.2488 H         1 UNK         0.0786 
    120 H120       33.7463  -53.1752  -53.9481 H         1 UNK         0.0786 
    121 H121       33.9770  -52.0317  -55.2721 H         1 UNK         0.0786 
    122 H122       34.3283  -50.8808  -53.0724 H         1 UNK         0.3032 
    123 H123       33.8049  -48.7506  -50.4301 H         1 UNK         0.1094 
    124 H124       36.1949  -49.2274  -50.7475 H         1 UNK         0.0794 
    125 H125       35.2962  -50.7203  -50.9252 H         1 UNK         0.0794 
    126 H126       35.9204  -49.8889  -52.3504 H         1 UNK         0.0794 
    127 H127       34.4123  -46.8367  -51.4088 H         1 UNK         0.3016 
@<TRIPOS>BOND
     1    1    2 1    
     2    1   67 1    
     3    1   68 1    
     4    1   69 1    
     5    2    3 2    
     6    2    4 am   BACKBONE|DICT|INTERRES
     7    4    5 1    
     8    4   70 1    
     9    5    6 1    
    10    5   65 1    
    11    5   71 1    
    12    6    7 1    
    13    6   72 1    
    14    6   73 1    
    15    7    8 1    
    16    8    9 1    
    17    8   74 1    
    18    8   75 1    
    19    9   10 ar   
    20    9   14 ar   
    21   10   11 ar   
    22   10   76 1    
    23   11   12 ar   
    24   11   48 1    
    25   12   13 ar   
    26   12   77 1    
    27   13   14 ar   
    28   13   15 1    
    29   14   78 1    
    30   15   16 1    
    31   15   79 1    
    32   15   80 1    
    33   16   17 1    
    34   17   18 1    
    35   17   81 1    
    36   17   82 1    
    37   18   19 1    
    38   18   22 1    
    39   18   83 1    
    40   19   20 am   BACKBONE|DICT|INTERRES
    41   19   21 2    
    42   20   84 1    
    43   20   85 1    
    44   22   23 am   BACKBONE|DICT|INTERRES
    45   22   86 1    
    46   23   24 2    
    47   23   25 1    
    48   25   26 1    
    49   25   27 1    
    50   25   87 1    
    51   26   88 1    
    52   26   89 1    
    53   26   90 1    
    54   27   28 am   BACKBONE|DICT|INTERRES
    55   27   91 1    
    56   28   29 2    
    57   28   30 1    
    58   30   31 1    
    59   30   32 1    
    60   30   92 1    
    61   31   93 1    
    62   31   94 1    
    63   31   95 1    
    64   32   33 am   BACKBONE|DICT|INTERRES
    65   32   96 1    
    66   33   34 2    
    67   33   35 1    
    68   35   36 1    
    69   35   37 1    
    70   35   97 1    
    71   36   98 1    
    72   36   99 1    
    73   36  100 1    
    74   37   38 am   BACKBONE|DICT|INTERRES
    75   37  101 1    
    76   38   39 2    
    77   38   40 1    
    78   40   41 1    
    79   40   42 1    
    80   40  102 1    
    81   41  103 1    
    82   41  104 1    
    83   41  105 1    
    84   42   43 am   BACKBONE|DICT|INTERRES
    85   42  106 1    
    86   43   44 2    
    87   43   45 1    
    88   45   46 1    
    89   45   49 1    
    90   45  107 1    
    91   46   47 1    
    92   46  108 1    
    93   46  109 1    
    94   47   48 1    
    95   48  110 1    
    96   48  111 1    
    97   49   50 am   BACKBONE|DICT|INTERRES
    98   49  112 1    
    99   50   51 2    
   100   50   52 1    
   101   52   53 1    
   102   52   54 1    
   103   52  113 1    
   104   53  114 1    
   105   53  115 1    
   106   53  116 1    
   107   54   55 am   BACKBONE|DICT|INTERRES
   108   54  117 1    
   109   55   56 2    
   110   55   57 1    
   111   57   58 1    
   112   57   59 1    
   113   57  118 1    
   114   58  119 1    
   115   58  120 1    
   116   58  121 1    
   117   59   60 am   BACKBONE|DICT|INTERRES
   118   59  122 1    
   119   60   61 2    
   120   60   62 1    
   121   62   63 1    
   122   62   64 1    
   123   62  123 1    
   124   63  124 1    
   125   63  125 1    
   126   63  126 1    
   127   64   65 am   BACKBONE|DICT|INTERRES
   128   64  127 1    
   129   65   66 2    
@<TRIPOS>SUBSTRUCTURE
     1 UNK         1 GROUP             0       ****    0 ROOT    
