@<TRIPOS>MOLECULE
3R134
127   129    1
SMALL
USER_CHARGES


@<TRIPOS>ATOM
      1 CA         37.9656  -46.2818  -52.8071 C.3       0 UNK        -0.1968 
      2 C          36.5038  -46.2805  -53.2288 C.2       0 UNK         0.4852 
      3 O          36.1053  -47.1182  -54.0396 O.2       0 UNK        -0.5359 
      4 N          35.7079  -45.3500  -52.6799 N.am      1 UNK        -0.4300 
      5 CA         34.2754  -45.1713  -52.9527 C.3       1 UNK         0.0863 
      6 C6         33.6809  -43.9770  -52.1616 C.3       11 UNK        -0.0953 
      7 S7         33.9920  -42.3965  -53.0118 S.3       11 UNK        -0.2369 
      8 C8         32.3117  -41.6877  -53.1241 C.3       11 UNK         0.0226 
      9 C9         31.3207  -42.5783  -53.8686 C.ar      11 UNK        -0.0699 
     10 C10        30.1512  -43.0160  -53.2329 C.ar      11 UNK        -0.0804 
     11 C11        29.2287  -43.8181  -53.9133 C.ar      11 UNK        -0.0871 
     12 C12        29.4833  -44.1776  -55.2389 C.ar      11 UNK        -0.1008 
     13 C13        30.6407  -43.7434  -55.8869 C.ar      11 UNK        -0.0735 
     14 C14        31.5572  -42.9438  -55.1983 C.ar      11 UNK        -0.0945 
     15 C15        30.8866  -44.1384  -57.3326 C.3       11 UNK         0.0169 
     16 S16        30.3262  -42.8319  -58.4678 S.3       11 UNK        -0.2669 
     17 C17        29.5137  -43.7937  -59.7916 C.3       11 UNK        -0.0850 
     18 CA         27.9746  -43.6064  -59.7854 C.3       10 UNK         0.0855 
     19 C          27.3331  -44.2640  -61.0368 C.2       10 UNK         0.5543 
     20 N          27.2323  -43.5318  -62.1374 N.am      10 UNK        -0.7343 
     21 O          26.9676  -45.4377  -61.0320 O.2       10 UNK        -0.5027 
     22 N          27.3685  -44.0958  -58.5392 N.am      10 UNK        -0.4495 
     23 C          26.1535  -43.7532  -58.0992 C.2       10 UNK         0.4903 
     24 O          25.4273  -42.9287  -58.6574 O.2       10 UNK        -0.4860 
     25 CA         25.6645  -44.4803  -56.8334 C.3       9 UNK         0.0227 
     26 CB         24.4198  -43.8210  -56.2108 C.3       9 UNK        -0.1964 
     27 N          25.3684  -45.8834  -57.1263 N.am      9 UNK        -0.4231 
     28 C          26.2817  -46.8560  -57.2315 C.2       9 UNK         0.5014 
     29 O          27.4851  -46.6867  -57.0270 O.2       9 UNK        -0.5270 
     30 CA         25.7621  -48.2148  -57.7119 C.3       8 UNK         0.0284 
     31 CB         25.6969  -48.2383  -59.2524 C.3       8 UNK        -0.1977 
     32 N          26.6139  -49.3020  -57.2275 N.am      8 UNK        -0.4342 
     33 C          26.2403  -50.5894  -57.1871 C.2       8 UNK         0.5039 
     34 O          25.1203  -50.9846  -57.5159 O.2       8 UNK        -0.5547 
     35 CA         27.2708  -51.6188  -56.7023 C.3       7 UNK         0.0281 
     36 CB         28.3812  -51.8297  -57.7465 C.3       7 UNK        -0.1963 
     37 N          27.8543  -51.2201  -55.4232 N.am      7 UNK        -0.4444 
     38 C          27.4067  -51.6226  -54.2254 C.2       7 UNK         0.5104 
     39 O          26.4732  -52.4122  -54.0754 O.2       7 UNK        -0.5100 
     40 CA         28.1166  -51.0720  -52.9721 C.3       6 UNK         0.0396 
     41 CB         29.1310  -52.0983  -52.4434 C.3       6 UNK        -0.1801 
     42 N          28.7974  -49.7928  -53.1843 N.am      6 UNK        -0.4747 
     43 C          28.1789  -48.6359  -53.4663 C.2       6 UNK         0.5012 
     44 O          26.9546  -48.5085  -53.5038 O.2       6 UNK        -0.5003 
     45 CA         29.0792  -47.4358  -53.8198 C.3       5 UNK         0.0782 
     46 C46        29.4790  -46.6219  -52.5619 C.3       11 UNK        -0.0868 
     47 S47        28.1972  -45.5050  -51.9038 S.3       11 UNK        -0.2515 
     48 C48        27.9431  -44.2835  -53.2370 C.3       11 UNK         0.0199 
     49 N          30.2757  -47.8115  -54.5822 N.am      5 UNK        -0.4607 
     50 C          30.3167  -48.4723  -55.7467 C.2       4 UNK         0.5031 
     51 O          29.3262  -48.9231  -56.3167 O.2       4 UNK        -0.5119 
     52 CA         31.7046  -48.7116  -56.3548 C.3       4 UNK         0.0263 
     53 CB         32.2445  -47.4345  -57.0158 C.3       4 UNK        -0.1967 
     54 N          32.6463  -49.1720  -55.3363 N.am      4 UNK        -0.4237 
     55 C          32.8094  -50.4546  -54.9855 C.2       3 UNK         0.4908 
     56 O          32.2360  -51.3958  -55.5346 O.2       3 UNK        -0.5102 
     57 CA         33.7689  -50.7417  -53.8170 C.3       3 UNK         0.0241 
     58 CB         35.2030  -50.9414  -54.3333 C.3       3 UNK        -0.1971 
     59 N          33.7663  -49.6981  -52.7892 N.am      3 UNK        -0.4139 
     60 C          32.7165  -49.3968  -52.0123 C.2       2 UNK         0.5016 
     61 O          31.6262  -49.9651  -52.0746 O.2       2 UNK        -0.5319 
     62 CA         32.8998  -48.2293  -51.0274 C.3       2 UNK         0.0286 
     63 CB         33.5260  -48.7287  -49.7158 C.3       2 UNK        -0.1963 
     64 N          33.6836  -47.0974  -51.5410 N.am      2 UNK        -0.4790 
     65 C          33.4493  -46.4405  -52.6878 C.2       1 UNK         0.5024 
     66 O          32.6281  -46.7977  -53.5296 O.2       1 UNK        -0.4888 
     67 H67        38.2239  -47.2383  -52.3537 H         1 UNK         0.0892 
     68 H68        38.6059  -46.1326  -53.6761 H         1 UNK         0.0892 
     69 H69        38.1842  -45.4944  -52.0859 H         1 UNK         0.0892 
     70 H70        36.1092  -44.6840  -52.0352 H         1 UNK         0.3107 
     71 H71        34.1764  -44.9700  -54.0221 H         1 UNK         0.0773 
     72 H72        34.0974  -43.9259  -51.1542 H         1 UNK         0.0680 
     73 H73        32.6038  -44.0858  -52.0211 H         1 UNK         0.0680 
     74 H74        32.3721  -40.7260  -53.6351 H         1 UNK         0.0650 
     75 H75        31.9576  -41.4754  -52.1142 H         1 UNK         0.0650 
     76 H76        29.9544  -42.7342  -52.2075 H         1 UNK         0.1397 
     77 H77        28.7781  -44.7948  -55.7758 H         1 UNK         0.1363 
     78 H78        32.4528  -42.6011  -55.6983 H         1 UNK         0.1355 
     79 H79        31.9476  -44.3303  -57.4985 H         1 UNK         0.0707 
     80 H80        30.3654  -45.0731  -57.5424 H         1 UNK         0.0707 
     81 H81        29.9304  -43.4476  -60.7396 H         1 UNK         0.1034 
     82 H82        29.7774  -44.8505  -59.7232 H         1 UNK         0.1034 
     83 H83        27.7753  -42.5338  -59.8424 H         1 UNK         0.0482 
     84 H84        27.5363  -42.5705  -62.1553 H         1 UNK         0.3460 
     85 H85        26.8329  -43.9456  -62.9654 H         1 UNK         0.3460 
     86 H86        27.8454  -44.8553  -58.0686 H         1 UNK         0.2989 
     87 H87        26.4657  -44.4277  -56.0966 H         1 UNK         0.0559 
     88 H88        24.6120  -42.7737  -55.9738 H         1 UNK         0.0848 
     89 H89        24.1331  -44.3139  -55.2817 H         1 UNK         0.0848 
     90 H90        23.5627  -43.8502  -56.8848 H         1 UNK         0.0848 
     91 H91        24.4088  -46.0969  -57.3595 H         1 UNK         0.3144 
     92 H92        24.7581  -48.3540  -57.3051 H         1 UNK         0.0727 
     93 H93        26.6895  -48.1406  -59.6944 H         1 UNK         0.0790 
     94 H94        25.0910  -47.4162  -59.6360 H         1 UNK         0.0790 
     95 H95        25.2542  -49.1623  -59.6240 H         1 UNK         0.0790 
     96 H96        27.5486  -49.0258  -56.9225 H         1 UNK         0.3215 
     97 H97        26.7543  -52.5741  -56.5846 H         1 UNK         0.0863 
     98 H98        29.0969  -52.5823  -57.4153 H         1 UNK         0.0808 
     99 H99        28.9342  -50.9139  -57.9545 H         1 UNK         0.0808 
    100 H100       27.9617  -52.1751  -58.6922 H         1 UNK         0.0808 
    101 H101       28.5785  -50.5098  -55.4655 H         1 UNK         0.3118 
    102 H102       27.3543  -50.9209  -52.2051 H         1 UNK         0.0546 
    103 H103       29.9483  -52.2560  -53.1488 H         1 UNK         0.0828 
    104 H104       28.6575  -53.0653  -52.2681 H         1 UNK         0.0828 
    105 H105       29.5647  -51.7753  -51.4969 H         1 UNK         0.0828 
    106 H106       29.8107  -49.8012  -53.1162 H         1 UNK         0.3005 
    107 H107       28.4929  -46.8012  -54.4848 H         1 UNK         0.1257 
    108 H108       30.3431  -45.9939  -52.7746 H         1 UNK         0.0775 
    109 H109       29.8015  -47.2868  -51.7593 H         1 UNK         0.0775 
    110 H110       27.2602  -44.7196  -53.9658 H         1 UNK         0.0840 
    111 H111       27.4231  -43.4179  -52.8242 H         1 UNK         0.0840 
    112 H112       31.1570  -47.4751  -54.1979 H         1 UNK         0.2987 
    113 H113       31.6065  -49.4744  -57.1307 H         1 UNK         0.0785 
    114 H114       31.5838  -47.1102  -57.8203 H         1 UNK         0.0798 
    115 H115       33.2281  -47.6018  -57.4546 H         1 UNK         0.0798 
    116 H116       32.3316  -46.6124  -56.3041 H         1 UNK         0.0798 
    117 H117       33.1096  -48.4556  -54.7899 H         1 UNK         0.3079 
    118 H118       33.4411  -51.6714  -53.3466 H         1 UNK         0.0794 
    119 H119       35.2396  -51.7235  -55.0930 H         1 UNK         0.0786 
    120 H120       35.8761  -51.2406  -53.5296 H         1 UNK         0.0786 
    121 H121       35.6006  -50.0300  -54.7825 H         1 UNK         0.0786 
    122 H122       34.6064  -49.1446  -52.6935 H         1 UNK         0.3032 
    123 H123       31.9028  -47.8491  -50.7988 H         1 UNK         0.1094 
    124 H124       33.5427  -47.9443  -48.9589 H         1 UNK         0.0794 
    125 H125       32.9545  -49.5611  -49.3022 H         1 UNK         0.0794 
    126 H126       34.5492  -49.0768  -49.8627 H         1 UNK         0.0794 
    127 H127       34.4021  -46.7353  -50.9304 H         1 UNK         0.3016 
@<TRIPOS>BOND
     1    1    2 1    
     2    1   67 1    
     3    1   68 1    
     4    1   69 1    
     5    2    3 2    
     6    2    4 am   BACKBONE|DICT|INTERRES
     7    4    5 1    
     8    4   70 1    
     9    5    6 1    
    10    5   65 1    
    11    5   71 1    
    12    6    7 1    
    13    6   72 1    
    14    6   73 1    
    15    7    8 1    
    16    8    9 1    
    17    8   74 1    
    18    8   75 1    
    19    9   10 ar   
    20    9   14 ar   
    21   10   11 ar   
    22   10   76 1    
    23   11   12 ar   
    24   11   48 1    
    25   12   13 ar   
    26   12   77 1    
    27   13   14 ar   
    28   13   15 1    
    29   14   78 1    
    30   15   16 1    
    31   15   79 1    
    32   15   80 1    
    33   16   17 1    
    34   17   18 1    
    35   17   81 1    
    36   17   82 1    
    37   18   19 1    
    38   18   22 1    
    39   18   83 1    
    40   19   20 am   BACKBONE|DICT|INTERRES
    41   19   21 2    
    42   20   84 1    
    43   20   85 1    
    44   22   23 am   BACKBONE|DICT|INTERRES
    45   22   86 1    
    46   23   24 2    
    47   23   25 1    
    48   25   26 1    
    49   25   27 1    
    50   25   87 1    
    51   26   88 1    
    52   26   89 1    
    53   26   90 1    
    54   27   28 am   BACKBONE|DICT|INTERRES
    55   27   91 1    
    56   28   29 2    
    57   28   30 1    
    58   30   31 1    
    59   30   32 1    
    60   30   92 1    
    61   31   93 1    
    62   31   94 1    
    63   31   95 1    
    64   32   33 am   BACKBONE|DICT|INTERRES
    65   32   96 1    
    66   33   34 2    
    67   33   35 1    
    68   35   36 1    
    69   35   37 1    
    70   35   97 1    
    71   36   98 1    
    72   36   99 1    
    73   36  100 1    
    74   37   38 am   BACKBONE|DICT|INTERRES
    75   37  101 1    
    76   38   39 2    
    77   38   40 1    
    78   40   41 1    
    79   40   42 1    
    80   40  102 1    
    81   41  103 1    
    82   41  104 1    
    83   41  105 1    
    84   42   43 am   BACKBONE|DICT|INTERRES
    85   42  106 1    
    86   43   44 2    
    87   43   45 1    
    88   45   46 1    
    89   45   49 1    
    90   45  107 1    
    91   46   47 1    
    92   46  108 1    
    93   46  109 1    
    94   47   48 1    
    95   48  110 1    
    96   48  111 1    
    97   49   50 am   BACKBONE|DICT|INTERRES
    98   49  112 1    
    99   50   51 2    
   100   50   52 1    
   101   52   53 1    
   102   52   54 1    
   103   52  113 1    
   104   53  114 1    
   105   53  115 1    
   106   53  116 1    
   107   54   55 am   BACKBONE|DICT|INTERRES
   108   54  117 1    
   109   55   56 2    
   110   55   57 1    
   111   57   58 1    
   112   57   59 1    
   113   57  118 1    
   114   58  119 1    
   115   58  120 1    
   116   58  121 1    
   117   59   60 am   BACKBONE|DICT|INTERRES
   118   59  122 1    
   119   60   61 2    
   120   60   62 1    
   121   62   63 1    
   122   62   64 1    
   123   62  123 1    
   124   63  124 1    
   125   63  125 1    
   126   63  126 1    
   127   64   65 am   BACKBONE|DICT|INTERRES
   128   64  127 1    
   129   65   66 2    
@<TRIPOS>SUBSTRUCTURE
     1 UNK         1 GROUP             0       ****    0 ROOT    
