@<TRIPOS>MOLECULE
3R134
127   129    1
SMALL
USER_CHARGES


@<TRIPOS>ATOM
      1 CA         37.3587  -44.4079  -54.9242 C.3       0 UNK        -0.1968 
      2 C          35.9505  -44.6961  -54.4277 C.2       0 UNK         0.4852 
      3 O          35.3075  -45.6278  -54.9163 O.2       0 UNK        -0.5359 
      4 N          35.4707  -43.9257  -53.4413 N.am      1 UNK        -0.4300 
      5 CA         34.1173  -43.9846  -52.8642 C.3       1 UNK         0.0863 
      6 C6         33.7313  -42.6457  -52.1798 C.3       11 UNK        -0.0953 
      7 S7         33.6773  -41.2623  -53.3704 S.3       11 UNK        -0.2369 
      8 C8         31.8937  -41.1519  -53.7328 C.3       11 UNK         0.0226 
      9 C9         31.3651  -42.4256  -54.3778 C.ar      11 UNK        -0.0699 
     10 C10        30.6927  -43.3778  -53.6051 C.ar      11 UNK        -0.0804 
     11 C11        30.2390  -44.5654  -54.1832 C.ar      11 UNK        -0.0871 
     12 C12        30.4563  -44.7979  -55.5431 C.ar      11 UNK        -0.1008 
     13 C13        31.0936  -43.8378  -56.3350 C.ar      11 UNK        -0.0735 
     14 C14        31.5540  -42.6562  -55.7444 C.ar      11 UNK        -0.0945 
     15 C15        31.2619  -44.0684  -57.8309 C.3       11 UNK         0.0169 
     16 S16        29.6675  -44.3378  -58.6778 S.3       11 UNK        -0.2669 
     17 C17        28.7799  -42.7691  -58.3631 C.3       11 UNK        -0.0850 
     18 CA         27.8744  -42.7964  -57.0933 C.3       10 UNK         0.0855 
     19 C          27.1761  -41.4289  -56.8231 C.2       10 UNK         0.5543 
     20 N          26.0044  -41.4015  -56.1996 N.am      10 UNK        -0.7343 
     21 O          27.7124  -40.3741  -57.1546 O.2       10 UNK        -0.5027 
     22 N          26.9902  -43.9750  -57.0301 N.am      10 UNK        -0.4495 
     23 C          25.9717  -44.2564  -57.8501 C.2       10 UNK         0.4903 
     24 O          25.6158  -43.5364  -58.7846 O.2       10 UNK        -0.4860 
     25 CA         25.2486  -45.5901  -57.5827 C.3       9 UNK         0.0227 
     26 CB         23.8892  -45.6788  -58.3010 C.3       9 UNK        -0.1964 
     27 N          26.0754  -46.7273  -57.9889 N.am      9 UNK        -0.4231 
     28 C          27.1270  -47.2062  -57.3135 C.2       9 UNK         0.5014 
     29 O          27.4898  -46.7796  -56.2150 O.2       9 UNK        -0.5270 
     30 CA         27.8910  -48.3618  -57.9784 C.3       8 UNK         0.0284 
     31 CB         29.4083  -48.2499  -57.7479 C.3       8 UNK        -0.1977 
     32 N          27.4228  -49.6553  -57.4829 N.am      8 UNK        -0.4342 
     33 C          26.2616  -50.2356  -57.8164 C.2       8 UNK         0.5039 
     34 O          25.4521  -49.7363  -58.5994 O.2       8 UNK        -0.5547 
     35 CA         25.9488  -51.6044  -57.1914 C.3       7 UNK         0.0281 
     36 CB         26.6684  -52.7219  -57.9652 C.3       7 UNK        -0.1963 
     37 N          26.3482  -51.6605  -55.7841 N.am      7 UNK        -0.4444 
     38 C          25.5134  -51.8133  -54.7462 C.2       7 UNK         0.5104 
     39 O          24.2961  -51.9628  -54.8591 O.2       7 UNK        -0.5100 
     40 CA         26.1345  -51.8002  -53.3329 C.3       6 UNK         0.0396 
     41 CB         26.3976  -53.2359  -52.8516 C.3       6 UNK        -0.1801 
     42 N          27.3800  -51.0316  -53.2563 N.am      6 UNK        -0.4747 
     43 C          27.4635  -49.7039  -53.4249 C.2       6 UNK         0.5012 
     44 O          26.4749  -48.9728  -53.4867 O.2       6 UNK        -0.5003 
     45 CA         28.8677  -49.0808  -53.5963 C.3       5 UNK         0.0782 
     46 C46        29.2220  -48.1643  -52.4007 C.3       11 UNK        -0.0868 
     47 S47        30.5266  -46.9816  -52.8642 S.3       11 UNK        -0.2515 
     48 C48        29.4751  -45.5823  -53.3557 C.3       11 UNK         0.0199 
     49 N          29.9514  -50.0390  -53.8722 N.am      5 UNK        -0.4607 
     50 C          30.0245  -50.8754  -54.9156 C.2       4 UNK         0.5031 
     51 O          29.1292  -50.9941  -55.7534 O.2       4 UNK        -0.5119 
     52 CA         31.2975  -51.7338  -55.0125 C.3       4 UNK         0.0263 
     53 CB         31.3293  -52.6125  -56.2819 C.3       4 UNK        -0.1967 
     54 N          32.5245  -50.9365  -54.8934 N.am      4 UNK        -0.4237 
     55 C          32.9447  -49.9569  -55.7065 C.2       3 UNK         0.4908 
     56 O          32.3190  -49.5520  -56.6867 O.2       3 UNK        -0.5102 
     57 CA         34.3091  -49.3340  -55.3578 C.3       3 UNK         0.0241 
     58 CB         34.9230  -48.5701  -56.5463 C.3       3 UNK        -0.1971 
     59 N          34.2309  -48.4282  -54.2110 N.am      3 UNK        -0.4139 
     60 C          34.0926  -48.8007  -52.9273 C.2       2 UNK         0.5016 
     61 O          33.9618  -49.9767  -52.5812 O.2       2 UNK        -0.5319 
     62 CA         34.1277  -47.7064  -51.8422 C.3       2 UNK         0.0286 
     63 CB         35.2126  -47.9910  -50.7869 C.3       2 UNK        -0.1963 
     64 N          34.3413  -46.3807  -52.4184 N.am      2 UNK        -0.4790 
     65 C          33.8849  -45.2162  -51.9530 C.2       1 UNK         0.5024 
     66 O          33.3024  -45.0998  -50.8734 O.2       1 UNK        -0.4888 
     67 H67        37.3382  -44.1718  -55.9877 H         1 UNK         0.0892 
     68 H68        37.8131  -43.5682  -54.3986 H         1 UNK         0.0892 
     69 H69        37.9927  -45.2824  -54.7811 H         1 UNK         0.0892 
     70 H70        36.0579  -43.1943  -53.0669 H         1 UNK         0.3107 
     71 H71        33.4305  -44.1326  -53.6992 H         1 UNK         0.0773 
     72 H72        32.7603  -42.7130  -51.6871 H         1 UNK         0.0680 
     73 H73        34.4475  -42.4003  -51.3940 H         1 UNK         0.0680 
     74 H74        31.7209  -40.3060  -54.3996 H         1 UNK         0.0650 
     75 H75        31.3507  -40.9305  -52.8127 H         1 UNK         0.0650 
     76 H76        30.5294  -43.1987  -52.5512 H         1 UNK         0.1397 
     77 H77        30.0936  -45.7117  -55.9947 H         1 UNK         0.1363 
     78 H78        32.0613  -41.9136  -56.3449 H         1 UNK         0.1355 
     79 H79        31.7773  -43.2298  -58.3018 H         1 UNK         0.0707 
     80 H80        31.8937  -44.9445  -57.9829 H         1 UNK         0.0707 
     81 H81        28.1771  -42.5431  -59.2440 H         1 UNK         0.1034 
     82 H82        29.5138  -41.9644  -58.2907 H         1 UNK         0.1034 
     83 H83        28.5324  -42.9073  -56.2340 H         1 UNK         0.0482 
     84 H84        25.5598  -42.2591  -55.9144 H         1 UNK         0.3460 
     85 H85        25.5601  -40.5152  -56.0183 H         1 UNK         0.3460 
     86 H86        27.2433  -44.6799  -56.3467 H         1 UNK         0.2989 
     87 H87        25.0605  -45.6583  -56.5090 H         1 UNK         0.0559 
     88 H88        23.9989  -45.6447  -59.3857 H         1 UNK         0.0848 
     89 H89        23.2414  -44.8498  -58.0129 H         1 UNK         0.0848 
     90 H90        23.3661  -46.6008  -58.0464 H         1 UNK         0.0848 
     91 H91        25.8333  -47.1707  -58.8644 H         1 UNK         0.3144 
     92 H92        27.7197  -48.3201  -59.0562 H         1 UNK         0.0727 
     93 H93        29.9468  -49.0544  -58.2490 H         1 UNK         0.0790 
     94 H94        29.6692  -48.2895  -56.6904 H         1 UNK         0.0790 
     95 H95        29.7946  -47.3092  -58.1402 H         1 UNK         0.0790 
     96 H96        28.0518  -50.1418  -56.8456 H         1 UNK         0.3215 
     97 H97        24.8729  -51.7655  -57.2884 H         1 UNK         0.0863 
     98 H98        27.7533  -52.6251  -57.9017 H         1 UNK         0.0808 
     99 H99        26.3986  -52.7018  -59.0221 H         1 UNK         0.0808 
    100 H100       26.3977  -53.7052  -57.5804 H         1 UNK         0.0808 
    101 H101       27.3373  -51.5238  -55.5935 H         1 UNK         0.3118 
    102 H102       25.4102  -51.3408  -52.6569 H         1 UNK         0.0546 
    103 H103       26.7692  -53.2504  -51.8269 H         1 UNK         0.0828 
    104 H104       27.1261  -53.7474  -53.4821 H         1 UNK         0.0828 
    105 H105       25.4807  -53.8267  -52.8697 H         1 UNK         0.0828 
    106 H106       28.2396  -51.5578  -53.1973 H         1 UNK         0.3005 
    107 H107       28.7748  -48.4538  -54.4857 H         1 UNK         0.1257 
    108 H108       29.5605  -48.7534  -51.5465 H         1 UNK         0.0775 
    109 H109       28.3543  -47.6018  -52.0489 H         1 UNK         0.0775 
    110 H110       28.6263  -45.9454  -53.9371 H         1 UNK         0.0840 
    111 H111       29.0555  -45.1172  -52.4623 H         1 UNK         0.0840 
    112 H112       30.7374  -49.9995  -53.2396 H         1 UNK         0.2987 
    113 H113       31.2805  -52.4038  -54.1517 H         1 UNK         0.0785 
    114 H114       32.2267  -53.2299  -56.3154 H         1 UNK         0.0798 
    115 H115       30.4716  -53.2858  -56.3118 H         1 UNK         0.0798 
    116 H116       31.2999  -52.0127  -57.1923 H         1 UNK         0.0798 
    117 H117       33.0857  -51.1035  -54.0633 H         1 UNK         0.3079 
    118 H118       34.9894  -50.1509  -55.1070 H         1 UNK         0.0794 
    119 H119       35.0061  -49.2121  -57.4242 H         1 UNK         0.0786 
    120 H120       35.9250  -48.2105  -56.3112 H         1 UNK         0.0786 
    121 H121       34.3182  -47.7066  -56.8275 H         1 UNK         0.0786 
    122 H122       34.2978  -47.4446  -54.4395 H         1 UNK         0.3032 
    123 H123       33.1504  -47.7252  -51.3545 H         1 UNK         0.1094 
    124 H124       36.2106  -47.9839  -51.2265 H         1 UNK         0.0794 
    125 H125       35.1928  -47.2503  -49.9872 H         1 UNK         0.0794 
    126 H126       35.0650  -48.9674  -50.3236 H         1 UNK         0.0794 
    127 H127       34.8321  -46.3362  -53.3080 H         1 UNK         0.3016 
@<TRIPOS>BOND
     1    1    2 1    
     2    1   67 1    
     3    1   68 1    
     4    1   69 1    
     5    2    3 2    
     6    2    4 am   BACKBONE|DICT|INTERRES
     7    4    5 1    
     8    4   70 1    
     9    5    6 1    
    10    5   65 1    
    11    5   71 1    
    12    6    7 1    
    13    6   72 1    
    14    6   73 1    
    15    7    8 1    
    16    8    9 1    
    17    8   74 1    
    18    8   75 1    
    19    9   10 ar   
    20    9   14 ar   
    21   10   11 ar   
    22   10   76 1    
    23   11   12 ar   
    24   11   48 1    
    25   12   13 ar   
    26   12   77 1    
    27   13   14 ar   
    28   13   15 1    
    29   14   78 1    
    30   15   16 1    
    31   15   79 1    
    32   15   80 1    
    33   16   17 1    
    34   17   18 1    
    35   17   81 1    
    36   17   82 1    
    37   18   19 1    
    38   18   22 1    
    39   18   83 1    
    40   19   20 am   BACKBONE|DICT|INTERRES
    41   19   21 2    
    42   20   84 1    
    43   20   85 1    
    44   22   23 am   BACKBONE|DICT|INTERRES
    45   22   86 1    
    46   23   24 2    
    47   23   25 1    
    48   25   26 1    
    49   25   27 1    
    50   25   87 1    
    51   26   88 1    
    52   26   89 1    
    53   26   90 1    
    54   27   28 am   BACKBONE|DICT|INTERRES
    55   27   91 1    
    56   28   29 2    
    57   28   30 1    
    58   30   31 1    
    59   30   32 1    
    60   30   92 1    
    61   31   93 1    
    62   31   94 1    
    63   31   95 1    
    64   32   33 am   BACKBONE|DICT|INTERRES
    65   32   96 1    
    66   33   34 2    
    67   33   35 1    
    68   35   36 1    
    69   35   37 1    
    70   35   97 1    
    71   36   98 1    
    72   36   99 1    
    73   36  100 1    
    74   37   38 am   BACKBONE|DICT|INTERRES
    75   37  101 1    
    76   38   39 2    
    77   38   40 1    
    78   40   41 1    
    79   40   42 1    
    80   40  102 1    
    81   41  103 1    
    82   41  104 1    
    83   41  105 1    
    84   42   43 am   BACKBONE|DICT|INTERRES
    85   42  106 1    
    86   43   44 2    
    87   43   45 1    
    88   45   46 1    
    89   45   49 1    
    90   45  107 1    
    91   46   47 1    
    92   46  108 1    
    93   46  109 1    
    94   47   48 1    
    95   48  110 1    
    96   48  111 1    
    97   49   50 am   BACKBONE|DICT|INTERRES
    98   49  112 1    
    99   50   51 2    
   100   50   52 1    
   101   52   53 1    
   102   52   54 1    
   103   52  113 1    
   104   53  114 1    
   105   53  115 1    
   106   53  116 1    
   107   54   55 am   BACKBONE|DICT|INTERRES
   108   54  117 1    
   109   55   56 2    
   110   55   57 1    
   111   57   58 1    
   112   57   59 1    
   113   57  118 1    
   114   58  119 1    
   115   58  120 1    
   116   58  121 1    
   117   59   60 am   BACKBONE|DICT|INTERRES
   118   59  122 1    
   119   60   61 2    
   120   60   62 1    
   121   62   63 1    
   122   62   64 1    
   123   62  123 1    
   124   63  124 1    
   125   63  125 1    
   126   63  126 1    
   127   64   65 am   BACKBONE|DICT|INTERRES
   128   64  127 1    
   129   65   66 2    
@<TRIPOS>SUBSTRUCTURE
     1 UNK         1 GROUP             0       ****    0 ROOT    
