@<TRIPOS>MOLECULE
3R134
127   129    1
SMALL
USER_CHARGES


@<TRIPOS>ATOM
      1 CA         37.4481  -45.2030  -51.7408 C.3       0 UNK        -0.1968 
      2 C          36.0170  -45.5560  -52.1173 C.2       0 UNK         0.4852 
      3 O          35.7959  -46.1865  -53.1510 O.2       0 UNK        -0.5359 
      4 N          35.0461  -45.1571  -51.2842 N.am      1 UNK        -0.4300 
      5 CA         33.6106  -45.3973  -51.4911 C.3       1 UNK         0.0863 
      6 C6         32.7299  -44.4107  -50.6820 C.3       11 UNK        -0.0953 
      7 S7         33.1141  -42.6642  -51.0566 S.3       11 UNK        -0.2369 
      8 C8         31.5714  -42.0737  -51.8403 C.3       11 UNK         0.0226 
      9 C9         31.2035  -42.7474  -53.1637 C.ar      11 UNK        -0.0699 
     10 C10        32.1731  -43.2728  -54.0288 C.ar      11 UNK        -0.0804 
     11 C11        31.8029  -43.8987  -55.2227 C.ar      11 UNK        -0.0871 
     12 C12        30.4520  -43.9637  -55.5644 C.ar      11 UNK        -0.1008 
     13 C13        29.4722  -43.4130  -54.7384 C.ar      11 UNK        -0.0735 
     14 C14        29.8554  -42.8121  -53.5356 C.ar      11 UNK        -0.0945 
     15 C15        28.0027  -43.4935  -55.1322 C.3       11 UNK         0.0169 
     16 S16        27.5235  -42.2029  -56.3276 S.3       11 UNK        -0.2669 
     17 C17        27.9294  -42.9739  -57.9379 C.3       11 UNK        -0.0850 
     18 CA         26.7131  -43.6613  -58.6092 C.3       10 UNK         0.0855 
     19 C          27.0868  -44.1812  -60.0195 C.2       10 UNK         0.5543 
     20 N          26.6952  -43.4710  -61.0681 N.am      10 UNK        -0.7343 
     21 O          27.7630  -45.1969  -60.1696 O.2       10 UNK        -0.5027 
     22 N          26.2101  -44.7725  -57.7940 N.am      10 UNK        -0.4495 
     23 C          24.9313  -44.9496  -57.4458 C.2       10 UNK         0.4903 
     24 O          24.0178  -44.1852  -57.7631 O.2       10 UNK        -0.4860 
     25 CA         24.6321  -46.1894  -56.5837 C.3       9 UNK         0.0227 
     26 CB         23.1239  -46.4265  -56.3563 C.3       9 UNK        -0.1964 
     27 N          25.2813  -47.4027  -57.0886 N.am      9 UNK        -0.4231 
     28 C          25.0968  -48.0059  -58.2736 C.2       9 UNK         0.5014 
     29 O          24.3151  -47.6042  -59.1367 O.2       9 UNK        -0.5270 
     30 CA         25.9235  -49.2770  -58.5583 C.3       8 UNK         0.0284 
     31 CB         26.9929  -48.9860  -59.6244 C.3       8 UNK        -0.1977 
     32 N          26.5790  -49.8357  -57.3721 N.am      8 UNK        -0.4342 
     33 C          25.9599  -50.4481  -56.3530 C.2       8 UNK         0.5039 
     34 O          24.7578  -50.7139  -56.3395 O.2       8 UNK        -0.5547 
     35 CA         26.8216  -50.7600  -55.1158 C.3       7 UNK         0.0281 
     36 CB         27.5526  -52.1027  -55.2761 C.3       7 UNK        -0.1963 
     37 N          27.7855  -49.6897  -54.8287 N.am      7 UNK        -0.4444 
     38 C          27.4428  -48.4579  -54.4215 C.2       7 UNK         0.5104 
     39 O          26.2856  -48.1170  -54.1816 O.2       7 UNK        -0.5100 
     40 CA         28.5601  -47.4107  -54.3184 C.3       6 UNK         0.0396 
     41 CB         29.1927  -47.4104  -52.9226 C.3       6 UNK        -0.1801 
     42 N          29.5913  -47.6014  -55.3389 N.am      6 UNK        -0.4747 
     43 C          29.4573  -47.2231  -56.6198 C.2       6 UNK         0.5012 
     44 O          28.4701  -46.6222  -57.0494 O.2       6 UNK        -0.5003 
     45 CA         30.5888  -47.6202  -57.5964 C.3       5 UNK         0.0782 
     46 C46        31.6638  -46.5148  -57.7561 C.3       11 UNK        -0.0868 
     47 S47        32.7464  -46.2957  -56.2935 S.3       11 UNK        -0.2515 
     48 C48        32.8612  -44.4811  -56.1518 C.3       11 UNK         0.0199 
     49 N          31.1954  -48.9144  -57.2703 N.am      5 UNK        -0.4607 
     50 C          30.5468  -50.0845  -57.2542 C.2       4 UNK         0.5031 
     51 O          29.3699  -50.2067  -57.5879 O.2       4 UNK        -0.5119 
     52 CA         31.3097  -51.3208  -56.7443 C.3       4 UNK         0.0263 
     53 CB         31.7735  -52.1829  -57.9288 C.3       4 UNK        -0.1967 
     54 N          32.4578  -51.0341  -55.8746 N.am      4 UNK        -0.4237 
     55 C          32.4162  -50.3630  -54.7148 C.2       3 UNK         0.4908 
     56 O          31.3965  -49.8348  -54.2611 O.2       3 UNK        -0.5102 
     57 CA         33.7466  -50.2509  -53.9599 C.3       3 UNK         0.0241 
     58 CB         34.7523  -49.3626  -54.7181 C.3       3 UNK        -0.1971 
     59 N          33.5105  -49.6903  -52.6340 N.am      3 UNK        -0.4139 
     60 C          34.2825  -49.8661  -51.5572 C.2       2 UNK         0.5016 
     61 O          35.2887  -50.5789  -51.5463 O.2       2 UNK        -0.5319 
     62 CA         33.8830  -49.0717  -50.2972 C.3       2 UNK         0.0286 
     63 CB         34.6959  -49.4794  -49.0539 C.3       2 UNK        -0.1963 
     64 N          34.0516  -47.6332  -50.5209 N.am      2 UNK        -0.4790 
     65 C          33.2010  -46.8586  -51.2101 C.2       1 UNK         0.5024 
     66 O          32.1258  -47.2735  -51.6392 O.2       1 UNK        -0.4888 
     67 H67        37.4992  -44.6453  -50.8057 H         1 UNK         0.0892 
     68 H68        38.0409  -46.1105  -51.6279 H         1 UNK         0.0892 
     69 H69        37.9016  -44.5947  -52.5230 H         1 UNK         0.0892 
     70 H70        35.2832  -44.6225  -50.4603 H         1 UNK         0.3107 
     71 H71        33.4014  -45.2395  -52.5501 H         1 UNK         0.0773 
     72 H72        32.8672  -44.5649  -49.6103 H         1 UNK         0.0680 
     73 H73        31.6718  -44.5920  -50.8817 H         1 UNK         0.0680 
     74 H74        31.6673  -41.0021  -52.0186 H         1 UNK         0.0650 
     75 H75        30.7595  -42.1948  -51.1214 H         1 UNK         0.0650 
     76 H76        33.2207  -43.2019  -53.7726 H         1 UNK         0.1397 
     77 H77        30.1626  -44.4523  -56.4769 H         1 UNK         0.1363 
     78 H78        29.0995  -42.3920  -52.8860 H         1 UNK         0.1355 
     79 H79        27.7795  -44.4743  -55.5482 H         1 UNK         0.0707 
     80 H80        27.3744  -43.3945  -54.2459 H         1 UNK         0.0707 
     81 H81        28.3119  -42.1816  -58.5842 H         1 UNK         0.1034 
     82 H82        28.7462  -43.6832  -57.8314 H         1 UNK         0.1034 
     83 H83        25.9349  -42.9038  -58.7233 H         1 UNK         0.0482 
     84 H84        26.1486  -42.6311  -60.9558 H         1 UNK         0.3460 
     85 H85        26.9432  -43.7868  -61.9928 H         1 UNK         0.3460 
     86 H86        26.8970  -45.4819  -57.5546 H         1 UNK         0.2989 
     87 H87        25.0809  -45.9918  -55.6092 H         1 UNK         0.0559 
     88 H88        22.5919  -46.5889  -57.2942 H         1 UNK         0.0848 
     89 H89        22.6632  -45.5678  -55.8664 H         1 UNK         0.0848 
     90 H90        22.9518  -47.2933  -55.7181 H         1 UNK         0.0848 
     91 H91        25.9474  -47.8240  -56.4553 H         1 UNK         0.3144 
     92 H92        25.2392  -50.0308  -58.9529 H         1 UNK         0.0727 
     93 H93        27.6937  -48.2197  -59.2906 H         1 UNK         0.0790 
     94 H94        26.5374  -48.6269  -60.5483 H         1 UNK         0.0790 
     95 H95        27.5650  -49.8807  -59.8708 H         1 UNK         0.0790 
     96 H96        27.5949  -49.7645  -57.3414 H         1 UNK         0.3215 
     97 H97        26.1512  -50.8415  -54.2571 H         1 UNK         0.0863 
     98 H98        28.1759  -52.3249  -54.4098 H         1 UNK         0.0808 
     99 H99        28.1859  -52.1201  -56.1626 H         1 UNK         0.0808 
    100 H100       26.8372  -52.9197  -55.3780 H         1 UNK         0.0808 
    101 H101       28.7611  -49.8799  -55.0096 H         1 UNK         0.3118 
    102 H102       28.1008  -46.4328  -54.4626 H         1 UNK         0.0546 
    103 H103       28.4348  -47.2906  -52.1474 H         1 UNK         0.0828 
    104 H104       29.8929  -46.5816  -52.8181 H         1 UNK         0.0828 
    105 H105       29.7298  -48.3365  -52.7162 H         1 UNK         0.0828 
    106 H106       30.4203  -48.1161  -55.0609 H         1 UNK         0.3005 
    107 H107       30.1061  -47.7403  -58.5693 H         1 UNK         0.1257 
    108 H108       31.2009  -45.5706  -58.0431 H         1 UNK         0.0775 
    109 H109       32.3120  -46.7713  -58.5954 H         1 UNK         0.0775 
    110 H110       33.8591  -44.2378  -55.7834 H         1 UNK         0.0840 
    111 H111       32.7857  -44.0183  -57.1366 H         1 UNK         0.0840 
    112 H112       32.1569  -48.8875  -56.9645 H         1 UNK         0.2987 
    113 H113       30.6036  -51.9075  -56.1543 H         1 UNK         0.0785 
    114 H114       30.9348  -52.4381  -58.5785 H         1 UNK         0.0798 
    115 H115       32.2133  -53.1213  -57.5906 H         1 UNK         0.0798 
    116 H116       32.5130  -51.6644  -58.5404 H         1 UNK         0.0798 
    117 H117       33.3432  -51.4204  -56.1703 H         1 UNK         0.3079 
    118 H118       34.1541  -51.2587  -53.8552 H         1 UNK         0.0794 
    119 H119       34.3919  -48.3371  -54.8063 H         1 UNK         0.0786 
    120 H120       34.9432  -49.7335  -55.7254 H         1 UNK         0.0786 
    121 H121       35.7131  -49.3264  -54.2039 H         1 UNK         0.0786 
    122 H122       32.6904  -49.0942  -52.5616 H         1 UNK         0.3032 
    123 H123       32.8309  -49.2856  -50.0934 H         1 UNK         0.1094 
    124 H124       35.7607  -49.2800  -49.1812 H         1 UNK         0.0794 
    125 H125       34.3581  -48.9438  -48.1665 H         1 UNK         0.0794 
    126 H126       34.5857  -50.5452  -48.8487 H         1 UNK         0.0794 
    127 H127       34.9304  -47.2297  -50.2311 H         1 UNK         0.3016 
@<TRIPOS>BOND
     1    1    2 1    
     2    1   67 1    
     3    1   68 1    
     4    1   69 1    
     5    2    3 2    
     6    2    4 am   BACKBONE|DICT|INTERRES
     7    4    5 1    
     8    4   70 1    
     9    5    6 1    
    10    5   65 1    
    11    5   71 1    
    12    6    7 1    
    13    6   72 1    
    14    6   73 1    
    15    7    8 1    
    16    8    9 1    
    17    8   74 1    
    18    8   75 1    
    19    9   10 ar   
    20    9   14 ar   
    21   10   11 ar   
    22   10   76 1    
    23   11   12 ar   
    24   11   48 1    
    25   12   13 ar   
    26   12   77 1    
    27   13   14 ar   
    28   13   15 1    
    29   14   78 1    
    30   15   16 1    
    31   15   79 1    
    32   15   80 1    
    33   16   17 1    
    34   17   18 1    
    35   17   81 1    
    36   17   82 1    
    37   18   19 1    
    38   18   22 1    
    39   18   83 1    
    40   19   20 am   BACKBONE|DICT|INTERRES
    41   19   21 2    
    42   20   84 1    
    43   20   85 1    
    44   22   23 am   BACKBONE|DICT|INTERRES
    45   22   86 1    
    46   23   24 2    
    47   23   25 1    
    48   25   26 1    
    49   25   27 1    
    50   25   87 1    
    51   26   88 1    
    52   26   89 1    
    53   26   90 1    
    54   27   28 am   BACKBONE|DICT|INTERRES
    55   27   91 1    
    56   28   29 2    
    57   28   30 1    
    58   30   31 1    
    59   30   32 1    
    60   30   92 1    
    61   31   93 1    
    62   31   94 1    
    63   31   95 1    
    64   32   33 am   BACKBONE|DICT|INTERRES
    65   32   96 1    
    66   33   34 2    
    67   33   35 1    
    68   35   36 1    
    69   35   37 1    
    70   35   97 1    
    71   36   98 1    
    72   36   99 1    
    73   36  100 1    
    74   37   38 am   BACKBONE|DICT|INTERRES
    75   37  101 1    
    76   38   39 2    
    77   38   40 1    
    78   40   41 1    
    79   40   42 1    
    80   40  102 1    
    81   41  103 1    
    82   41  104 1    
    83   41  105 1    
    84   42   43 am   BACKBONE|DICT|INTERRES
    85   42  106 1    
    86   43   44 2    
    87   43   45 1    
    88   45   46 1    
    89   45   49 1    
    90   45  107 1    
    91   46   47 1    
    92   46  108 1    
    93   46  109 1    
    94   47   48 1    
    95   48  110 1    
    96   48  111 1    
    97   49   50 am   BACKBONE|DICT|INTERRES
    98   49  112 1    
    99   50   51 2    
   100   50   52 1    
   101   52   53 1    
   102   52   54 1    
   103   52  113 1    
   104   53  114 1    
   105   53  115 1    
   106   53  116 1    
   107   54   55 am   BACKBONE|DICT|INTERRES
   108   54  117 1    
   109   55   56 2    
   110   55   57 1    
   111   57   58 1    
   112   57   59 1    
   113   57  118 1    
   114   58  119 1    
   115   58  120 1    
   116   58  121 1    
   117   59   60 am   BACKBONE|DICT|INTERRES
   118   59  122 1    
   119   60   61 2    
   120   60   62 1    
   121   62   63 1    
   122   62   64 1    
   123   62  123 1    
   124   63  124 1    
   125   63  125 1    
   126   63  126 1    
   127   64   65 am   BACKBONE|DICT|INTERRES
   128   64  127 1    
   129   65   66 2    
@<TRIPOS>SUBSTRUCTURE
     1 UNK         1 GROUP             0       ****    0 ROOT    
