@<TRIPOS>MOLECULE
3R134
127   129    1
SMALL
USER_CHARGES


@<TRIPOS>ATOM
      1 CA         37.7543  -47.1755  -51.6993 C.3       0 UNK        -0.1968 
      2 C          36.4747  -47.0945  -52.5177 C.2       0 UNK         0.4852 
      3 O          36.0373  -48.1074  -53.0665 O.2       0 UNK        -0.5359 
      4 N          35.8632  -45.9015  -52.5915 N.am      1 UNK        -0.4300 
      5 CA         34.6385  -45.6158  -53.3549 C.3       1 UNK         0.0863 
      6 C6         34.2752  -44.0999  -53.3424 C.3       11 UNK        -0.0953 
      7 S7         34.3844  -43.3185  -54.9886 S.3       11 UNK        -0.2369 
      8 C8         32.8827  -43.9167  -55.8320 C.3       11 UNK         0.0226 
      9 C9         31.6073  -43.2499  -55.3348 C.ar      11 UNK        -0.0699 
     10 C10        30.8846  -43.8154  -54.2834 C.ar      11 UNK        -0.0804 
     11 C11        29.6949  -43.2389  -53.8337 C.ar      11 UNK        -0.0871 
     12 C12        29.2213  -42.0801  -54.4582 C.ar      11 UNK        -0.1008 
     13 C13        29.9379  -41.4961  -55.5091 C.ar      11 UNK        -0.0735 
     14 C14        31.1313  -42.0851  -55.9414 C.ar      11 UNK        -0.0945 
     15 C15        29.4440  -40.2076  -56.1533 C.3       11 UNK         0.0169 
     16 S16        27.9980  -40.4670  -57.2296 S.3       11 UNK        -0.2669 
     17 C17        28.6937  -41.4922  -58.5738 C.3       11 UNK        -0.0850 
     18 CA         27.7750  -42.6830  -58.9543 C.3       10 UNK         0.0855 
     19 C          28.3573  -43.4869  -60.1564 C.2       10 UNK         0.5543 
     20 N          28.5696  -44.7951  -60.0571 N.am      10 UNK        -0.7343 
     21 O          28.6164  -42.9083  -61.2088 O.2       10 UNK        -0.5027 
     22 N          27.4268  -43.5110  -57.7883 N.am      10 UNK        -0.4495 
     23 C          26.3291  -44.2688  -57.7118 C.2       10 UNK         0.4903 
     24 O          25.4327  -44.2815  -58.5590 O.2       10 UNK        -0.4860 
     25 CA         26.2197  -45.1866  -56.4858 C.3       9 UNK         0.0227 
     26 CB         25.1651  -44.6612  -55.4992 C.3       9 UNK        -0.1964 
     27 N          25.8801  -46.5522  -56.8916 N.am      9 UNK        -0.4231 
     28 C          26.6750  -47.3372  -57.6303 C.2       9 UNK         0.5014 
     29 O          27.8191  -47.0264  -57.9705 O.2       9 UNK        -0.5270 
     30 CA         26.0827  -48.6682  -58.1033 C.3       8 UNK         0.0284 
     31 CB         25.9512  -48.6889  -59.6394 C.3       8 UNK        -0.1977 
     32 N          26.9289  -49.7637  -57.6377 N.am      8 UNK        -0.4342 
     33 C          26.5592  -51.0499  -57.5791 C.2       8 UNK         0.5039 
     34 O          25.4648  -51.4680  -57.9606 O.2       8 UNK        -0.5547 
     35 CA         27.5612  -52.0368  -56.9614 C.3       7 UNK         0.0281 
     36 CB         28.7775  -52.2599  -57.8770 C.3       7 UNK        -0.1963 
     37 N          27.9946  -51.5685  -55.6451 N.am      7 UNK        -0.4444 
     38 C          27.3251  -51.8000  -54.5066 C.2       7 UNK         0.5104 
     39 O          26.3351  -52.5291  -54.4321 O.2       7 UNK        -0.5100 
     40 CA         27.8304  -51.1050  -53.2270 C.3       6 UNK         0.0396 
     41 CB         28.7581  -52.0438  -52.4398 C.3       6 UNK        -0.1801 
     42 N          28.5255  -49.8397  -53.4700 N.am      6 UNK        -0.4747 
     43 C          27.9738  -48.7420  -54.0100 C.2       6 UNK         0.5012 
     44 O          26.7837  -48.6486  -54.3109 O.2       6 UNK        -0.5003 
     45 CA         28.9340  -47.5698  -54.3018 C.3       5 UNK         0.0782 
     46 C46        29.0735  -46.6521  -53.0572 C.3       11 UNK        -0.0868 
     47 S47        27.9033  -45.2522  -53.0923 S.3       11 UNK        -0.2515 
     48 C48        28.9556  -43.8342  -52.6410 C.3       11 UNK         0.0199 
     49 N          30.2382  -48.0172  -54.8142 N.am      5 UNK        -0.4607 
     50 C          30.4268  -48.7824  -55.9008 C.2       4 UNK         0.5031 
     51 O          29.5134  -49.2125  -56.6014 O.2       4 UNK        -0.5119 
     52 CA         31.8678  -49.1966  -56.2285 C.3       4 UNK         0.0263 
     53 CB         32.6095  -48.0831  -56.9827 C.3       4 UNK        -0.1967 
     54 N          32.6007  -49.5613  -55.0168 N.am      4 UNK        -0.4237 
     55 C          32.4600  -50.7336  -54.3813 C.2       3 UNK         0.4908 
     56 O          31.7773  -51.6661  -54.8058 O.2       3 UNK        -0.5102 
     57 CA         33.1791  -50.8840  -53.0297 C.3       3 UNK         0.0241 
     58 CB         34.6135  -51.3970  -53.2323 C.3       3 UNK        -0.1971 
     59 N          33.2070  -49.6389  -52.2576 N.am      3 UNK        -0.4139 
     60 C          32.1199  -49.0508  -51.7355 C.2       2 UNK         0.5016 
     61 O          30.9818  -49.5116  -51.8257 O.2       2 UNK        -0.5319 
     62 CA         32.3238  -47.6931  -51.0382 C.3       2 UNK         0.0286 
     63 CB         32.6196  -47.8983  -49.5445 C.3       2 UNK        -0.1963 
     64 N          33.3764  -46.8590  -51.6315 N.am      2 UNK        -0.4790 
     65 C          33.4340  -46.4768  -52.9168 C.2       1 UNK         0.5024 
     66 O          32.5951  -46.8044  -53.7547 O.2       1 UNK        -0.4888 
     67 H67        38.0227  -46.2134  -51.2633 H         1 UNK         0.0892 
     68 H68        37.6360  -47.8944  -50.8891 H         1 UNK         0.0892 
     69 H69        38.5804  -47.5047  -52.3290 H         1 UNK         0.0892 
     70 H70        36.2764  -45.1111  -52.1170 H         1 UNK         0.3107 
     71 H71        34.8548  -45.9222  -54.3807 H         1 UNK         0.0773 
     72 H72        34.9554  -43.5477  -52.6922 H         1 UNK         0.0680 
     73 H73        33.2883  -43.8985  -52.9237 H         1 UNK         0.0680 
     74 H74        32.9938  -43.7361  -56.9022 H         1 UNK         0.0650 
     75 H75        32.8087  -44.9969  -55.7201 H         1 UNK         0.0650 
     76 H76        31.2639  -44.7016  -53.8068 H         1 UNK         0.1397 
     77 H77        28.3043  -41.6188  -54.1169 H         1 UNK         0.1363 
     78 H78        31.6927  -41.6373  -56.7501 H         1 UNK         0.1355 
     79 H79        29.1738  -39.4980  -55.3699 H         1 UNK         0.0707 
     80 H80        30.2386  -39.7321  -56.7307 H         1 UNK         0.0707 
     81 H81        29.6830  -41.8575  -58.2986 H         1 UNK         0.1034 
     82 H82        28.8478  -40.8415  -59.4367 H         1 UNK         0.1034 
     83 H83        26.8465  -42.2466  -59.3281 H         1 UNK         0.0482 
     84 H84        28.9441  -45.2906  -60.8500 H         1 UNK         0.3460 
     85 H85        28.3413  -45.3042  -59.2123 H         1 UNK         0.3460 
     86 H86        28.1127  -43.5475  -57.0480 H         1 UNK         0.2989 
     87 H87        27.1850  -45.2135  -55.9783 H         1 UNK         0.0559 
     88 H88        24.1754  -44.6044  -55.9543 H         1 UNK         0.0848 
     89 H89        25.4242  -43.6595  -55.1534 H         1 UNK         0.0848 
     90 H90        25.0952  -45.2979  -54.6169 H         1 UNK         0.0848 
     91 H91        24.9469  -46.8696  -56.6732 H         1 UNK         0.3144 
     92 H92        25.0902  -48.7881  -57.6634 H         1 UNK         0.0727 
     93 H93        26.9264  -48.6356  -60.1251 H         1 UNK         0.0790 
     94 H94        25.3643  -47.8394  -59.9916 H         1 UNK         0.0790 
     95 H95        25.4520  -49.5924  -59.9890 H         1 UNK         0.0790 
     96 H96        27.8531  -49.4897  -57.2984 H         1 UNK         0.3215 
     97 H97        27.0575  -52.9998  -56.8496 H         1 UNK         0.0863 
     98 H98        29.3249  -51.3386  -58.0741 H         1 UNK         0.0808 
     99 H99        28.4651  -52.6617  -58.8416 H         1 UNK         0.0808 
    100 H100       29.4753  -52.9739  -57.4390 H         1 UNK         0.0808 
    101 H101       28.7640  -50.9094  -55.6308 H         1 UNK         0.3118 
    102 H102       26.9588  -50.8873  -52.6065 H         1 UNK         0.0546 
    103 H103       29.0528  -51.6034  -51.4870 H         1 UNK         0.0828 
    104 H104       29.6673  -52.2716  -52.9977 H         1 UNK         0.0828 
    105 H105       28.2630  -52.9905  -52.2197 H         1 UNK         0.0828 
    106 H106       29.4987  -49.7948  -53.1804 H         1 UNK         0.3005 
    107 H107       28.4899  -46.9989  -55.1193 H         1 UNK         0.1257 
    108 H108       30.0834  -46.2600  -52.9860 H         1 UNK         0.0775 
    109 H109       28.9320  -47.2011  -52.1235 H         1 UNK         0.0775 
    110 H110       28.3220  -43.0724  -52.1842 H         1 UNK         0.0840 
    111 H111       29.6655  -44.1299  -51.8669 H         1 UNK         0.0840 
    112 H112       31.0599  -47.6796  -54.3208 H         1 UNK         0.2987 
    113 H113       31.8210  -50.0683  -56.8853 H         1 UNK         0.0785 
    114 H114       33.6075  -48.4043  -57.2808 H         1 UNK         0.0798 
    115 H115       32.0726  -47.8046  -57.8906 H         1 UNK         0.0798 
    116 H116       32.7145  -47.1840  -56.3786 H         1 UNK         0.0798 
    117 H117       33.1385  -48.8290  -54.5726 H         1 UNK         0.3079 
    118 H118       32.6300  -51.6267  -52.4466 H         1 UNK         0.0794 
    119 H119       35.1097  -51.5754  -52.2781 H         1 UNK         0.0786 
    120 H120       35.2203  -50.6886  -53.7981 H         1 UNK         0.0786 
    121 H121       34.6167  -52.3403  -53.7802 H         1 UNK         0.0786 
    122 H122       34.1001  -49.1687  -52.1772 H         1 UNK         0.3032 
    123 H123       31.3845  -47.1442  -51.1239 H         1 UNK         0.1094 
    124 H124       31.8421  -48.5007  -49.0721 H         1 UNK         0.0794 
    125 H125       33.5697  -48.4104  -49.3867 H         1 UNK         0.0794 
    126 H126       32.6568  -46.9476  -49.0121 H         1 UNK         0.0794 
    127 H127       34.1143  -46.5525  -51.0139 H         1 UNK         0.3016 
@<TRIPOS>BOND
     1    1    2 1    
     2    1   67 1    
     3    1   68 1    
     4    1   69 1    
     5    2    3 2    
     6    2    4 am   BACKBONE|DICT|INTERRES
     7    4    5 1    
     8    4   70 1    
     9    5    6 1    
    10    5   65 1    
    11    5   71 1    
    12    6    7 1    
    13    6   72 1    
    14    6   73 1    
    15    7    8 1    
    16    8    9 1    
    17    8   74 1    
    18    8   75 1    
    19    9   10 ar   
    20    9   14 ar   
    21   10   11 ar   
    22   10   76 1    
    23   11   12 ar   
    24   11   48 1    
    25   12   13 ar   
    26   12   77 1    
    27   13   14 ar   
    28   13   15 1    
    29   14   78 1    
    30   15   16 1    
    31   15   79 1    
    32   15   80 1    
    33   16   17 1    
    34   17   18 1    
    35   17   81 1    
    36   17   82 1    
    37   18   19 1    
    38   18   22 1    
    39   18   83 1    
    40   19   20 am   BACKBONE|DICT|INTERRES
    41   19   21 2    
    42   20   84 1    
    43   20   85 1    
    44   22   23 am   BACKBONE|DICT|INTERRES
    45   22   86 1    
    46   23   24 2    
    47   23   25 1    
    48   25   26 1    
    49   25   27 1    
    50   25   87 1    
    51   26   88 1    
    52   26   89 1    
    53   26   90 1    
    54   27   28 am   BACKBONE|DICT|INTERRES
    55   27   91 1    
    56   28   29 2    
    57   28   30 1    
    58   30   31 1    
    59   30   32 1    
    60   30   92 1    
    61   31   93 1    
    62   31   94 1    
    63   31   95 1    
    64   32   33 am   BACKBONE|DICT|INTERRES
    65   32   96 1    
    66   33   34 2    
    67   33   35 1    
    68   35   36 1    
    69   35   37 1    
    70   35   97 1    
    71   36   98 1    
    72   36   99 1    
    73   36  100 1    
    74   37   38 am   BACKBONE|DICT|INTERRES
    75   37  101 1    
    76   38   39 2    
    77   38   40 1    
    78   40   41 1    
    79   40   42 1    
    80   40  102 1    
    81   41  103 1    
    82   41  104 1    
    83   41  105 1    
    84   42   43 am   BACKBONE|DICT|INTERRES
    85   42  106 1    
    86   43   44 2    
    87   43   45 1    
    88   45   46 1    
    89   45   49 1    
    90   45  107 1    
    91   46   47 1    
    92   46  108 1    
    93   46  109 1    
    94   47   48 1    
    95   48  110 1    
    96   48  111 1    
    97   49   50 am   BACKBONE|DICT|INTERRES
    98   49  112 1    
    99   50   51 2    
   100   50   52 1    
   101   52   53 1    
   102   52   54 1    
   103   52  113 1    
   104   53  114 1    
   105   53  115 1    
   106   53  116 1    
   107   54   55 am   BACKBONE|DICT|INTERRES
   108   54  117 1    
   109   55   56 2    
   110   55   57 1    
   111   57   58 1    
   112   57   59 1    
   113   57  118 1    
   114   58  119 1    
   115   58  120 1    
   116   58  121 1    
   117   59   60 am   BACKBONE|DICT|INTERRES
   118   59  122 1    
   119   60   61 2    
   120   60   62 1    
   121   62   63 1    
   122   62   64 1    
   123   62  123 1    
   124   63  124 1    
   125   63  125 1    
   126   63  126 1    
   127   64   65 am   BACKBONE|DICT|INTERRES
   128   64  127 1    
   129   65   66 2    
@<TRIPOS>SUBSTRUCTURE
     1 UNK         1 GROUP             0       ****    0 ROOT    
