@<TRIPOS>MOLECULE
3R134
127   129    1
SMALL
USER_CHARGES


@<TRIPOS>ATOM
      1 CA         30.0252  -45.5734  -53.5647 C.3       0 UNK        -0.1968 
      2 C          31.4502  -45.9241  -53.1751 C.2       0 UNK         0.4852 
      3 O          32.0467  -46.7992  -53.8044 O.2       0 UNK        -0.5359 
      4 N          31.9847  -45.2614  -52.1360 N.am      1 UNK        -0.4300 
      5 CA         33.3229  -45.4682  -51.5583 C.3       1 UNK         0.0863 
      6 C6         34.4723  -45.1428  -52.5685 C.3       11 UNK        -0.0953 
      7 S7         34.9337  -43.3773  -52.6884 S.3       11 UNK        -0.2369 
      8 C8         33.3871  -42.4776  -53.0688 C.3       11 UNK         0.0226 
      9 C9         32.6950  -42.8101  -54.3933 C.ar      11 UNK        -0.0699 
     10 C10        33.2871  -43.5883  -55.3973 C.ar      11 UNK        -0.0804 
     11 C11        32.5886  -43.8979  -56.5680 C.ar      11 UNK        -0.0871 
     12 C12        31.3014  -43.3883  -56.7581 C.ar      11 UNK        -0.1008 
     13 C13        30.7066  -42.5900  -55.7782 C.ar      11 UNK        -0.0735 
     14 C14        31.4056  -42.3093  -54.6013 C.ar      11 UNK        -0.0945 
     15 C15        29.3049  -42.0409  -55.9839 C.3       11 UNK         0.0169 
     16 S16        28.0605  -43.2238  -55.3918 S.3       11 UNK        -0.2669 
     17 C17        26.5100  -42.3156  -55.7235 C.3       11 UNK        -0.0850 
     18 CA         25.7930  -42.7510  -57.0301 C.3       10 UNK         0.0855 
     19 C          26.4125  -42.0894  -58.2958 C.2       10 UNK         0.5543 
     20 N          26.8806  -42.8448  -59.2821 N.am      10 UNK        -0.7343 
     21 O          26.4577  -40.8653  -58.3878 O.2       10 UNK        -0.5027 
     22 N          25.6652  -44.2136  -57.1029 N.am      10 UNK        -0.4495 
     23 C          24.6840  -44.8852  -57.7137 C.2       10 UNK         0.4903 
     24 O          23.7227  -44.3437  -58.2606 O.2       10 UNK        -0.4860 
     25 CA         24.7944  -46.4220  -57.7420 C.3       9 UNK         0.0227 
     26 CB         25.1221  -46.8956  -59.1662 C.3       9 UNK        -0.1964 
     27 N          25.7840  -46.9764  -56.8076 N.am      9 UNK        -0.4231 
     28 C          25.6373  -47.0154  -55.4751 C.2       9 UNK         0.5014 
     29 O          24.6516  -46.5756  -54.8797 O.2       9 UNK        -0.5270 
     30 CA         26.7946  -47.6643  -54.6950 C.3       8 UNK         0.0284 
     31 CB         26.6176  -47.6059  -53.1627 C.3       8 UNK        -0.1977 
     32 N          27.0493  -49.0344  -55.1514 N.am      8 UNK        -0.4342 
     33 C          26.2297  -50.0956  -55.0892 C.2       8 UNK         0.5039 
     34 O          25.1207  -50.0874  -54.5525 O.2       8 UNK        -0.5547 
     35 CA         26.7601  -51.3902  -55.7381 C.3       7 UNK         0.0281 
     36 CB         25.6617  -52.4465  -55.9885 C.3       7 UNK        -0.1963 
     37 N          27.5453  -51.1256  -56.9509 N.am      7 UNK        -0.4444 
     38 C          27.1081  -50.6121  -58.1117 C.2       7 UNK         0.5104 
     39 O          25.9259  -50.3730  -58.3579 O.2       7 UNK        -0.5100 
     40 CA         28.1963  -50.2901  -59.1595 C.3       6 UNK         0.0396 
     41 CB         27.6925  -49.4030  -60.3158 C.3       6 UNK        -0.1801 
     42 N          29.4172  -49.7205  -58.5728 N.am      6 UNK        -0.4747 
     43 C          29.5146  -48.6246  -57.8022 C.2       6 UNK         0.5012 
     44 O          28.5598  -47.9051  -57.4955 O.2       6 UNK        -0.5003 
     45 CA         30.9146  -48.3233  -57.2270 C.3       5 UNK         0.0782 
     46 C46        31.3193  -46.8580  -57.5173 C.3       11 UNK        -0.0868 
     47 S47        33.0852  -46.5535  -57.1817 S.3       11 UNK        -0.2515 
     48 C48        33.2287  -44.7912  -57.6203 C.3       11 UNK         0.0199 
     49 N          31.0140  -48.6410  -55.7941 N.am      5 UNK        -0.4607 
     50 C          30.6529  -49.7818  -55.1877 C.2       4 UNK         0.5031 
     51 O          30.1207  -50.7343  -55.7606 O.2       4 UNK        -0.5119 
     52 CA         30.9776  -49.8740  -53.6864 C.3       4 UNK         0.0263 
     53 CB         30.4212  -51.1491  -53.0182 C.3       4 UNK        -0.1967 
     54 N          32.4185  -49.7311  -53.4490 N.am      4 UNK        -0.4237 
     55 C          33.4055  -50.5135  -53.9173 C.2       3 UNK         0.4908 
     56 O          33.2267  -51.5554  -54.5490 O.2       3 UNK        -0.5102 
     57 CA         34.8510  -50.0502  -53.6616 C.3       3 UNK         0.0241 
     58 CB         35.3666  -49.2484  -54.8687 C.3       3 UNK        -0.1971 
     59 N          35.0017  -49.2369  -52.4548 N.am      3 UNK        -0.4139 
     60 C          34.8943  -49.6843  -51.1949 C.2       2 UNK         0.5016 
     61 O          34.7197  -50.8666  -50.8984 O.2       2 UNK        -0.5319 
     62 CA         34.9911  -48.6287  -50.0743 C.3       2 UNK         0.0286 
     63 CB         36.3970  -48.6297  -49.4523 C.3       2 UNK        -0.1963 
     64 N          34.6669  -47.2711  -50.5326 N.am      2 UNK        -0.4790 
     65 C          33.4453  -46.8801  -50.9249 C.2       1 UNK         0.5024 
     66 O          32.4518  -47.6007  -50.7954 O.2       1 UNK        -0.4888 
     67 H67        29.3465  -46.3596  -53.2394 H         1 UNK         0.0892 
     68 H68        29.7027  -44.6320  -53.1208 H         1 UNK         0.0892 
     69 H69        29.9500  -45.4776  -54.6474 H         1 UNK         0.0892 
     70 H70        31.4099  -44.5936  -51.6434 H         1 UNK         0.3107 
     71 H71        33.4028  -44.7774  -50.7177 H         1 UNK         0.0773 
     72 H72        34.2494  -45.5250  -53.5638 H         1 UNK         0.0680 
     73 H73        35.4063  -45.6341  -52.2980 H         1 UNK         0.0680 
     74 H74        32.6899  -42.6199  -52.2431 H         1 UNK         0.0650 
     75 H75        33.6239  -41.4130  -53.0771 H         1 UNK         0.0650 
     76 H76        34.2857  -43.9798  -55.2728 H         1 UNK         0.1397 
     77 H77        30.7557  -43.6222  -57.6621 H         1 UNK         0.1363 
     78 H78        30.9374  -41.7027  -53.8379 H         1 UNK         0.1355 
     79 H79        29.1384  -41.8300  -57.0412 H         1 UNK         0.0707 
     80 H80        29.1898  -41.0932  -55.4554 H         1 UNK         0.0707 
     81 H81        26.6896  -41.2387  -55.7054 H         1 UNK         0.1034 
     82 H82        25.8445  -42.5049  -54.8800 H         1 UNK         0.1034 
     83 H83        24.7825  -42.3416  -56.9738 H         1 UNK         0.0482 
     84 H84        26.8440  -43.8484  -59.2156 H         1 UNK         0.3460 
     85 H85        27.2724  -42.4043  -60.0994 H         1 UNK         0.3460 
     86 H86        26.4238  -44.7331  -56.6862 H         1 UNK         0.2989 
     87 H87        23.8152  -46.8213  -57.4701 H         1 UNK         0.0559 
     88 H88        25.1164  -47.9830  -59.2332 H         1 UNK         0.0848 
     89 H89        26.0977  -46.5364  -59.4943 H         1 UNK         0.0848 
     90 H90        24.3840  -46.5295  -59.8813 H         1 UNK         0.0848 
     91 H91        26.6406  -47.3521  -57.2059 H         1 UNK         0.3144 
     92 H92        27.6883  -47.0892  -54.9419 H         1 UNK         0.0727 
     93 H93        27.4644  -48.0589  -52.6473 H         1 UNK         0.0790 
     94 H94        25.7132  -48.1201  -52.8364 H         1 UNK         0.0790 
     95 H95        26.5429  -46.5727  -52.8212 H         1 UNK         0.0790 
     96 H96        27.8961  -49.1484  -55.6924 H         1 UNK         0.3215 
     97 H97        27.4603  -51.8168  -55.0180 H         1 UNK         0.0863 
     98 H98        26.0714  -53.3440  -56.4515 H         1 UNK         0.0808 
     99 H99        24.8692  -52.0662  -56.6335 H         1 UNK         0.0808 
    100 H100       25.1947  -52.7507  -55.0510 H         1 UNK         0.0808 
    101 H101       28.5512  -51.2218  -56.8293 H         1 UNK         0.3118 
    102 H102       28.4818  -51.2513  -59.5892 H         1 UNK         0.0546 
    103 H103       27.4438  -48.4003  -59.9740 H         1 UNK         0.0828 
    104 H104       26.8007  -49.8238  -60.7819 H         1 UNK         0.0828 
    105 H105       28.4475  -49.3081  -61.0958 H         1 UNK         0.0828 
    106 H106       30.2543  -50.2680  -58.7218 H         1 UNK         0.3005 
    107 H107       31.6303  -48.9708  -57.7374 H         1 UNK         0.1257 
    108 H108       31.1326  -46.6032  -58.5626 H         1 UNK         0.0775 
    109 H109       30.7165  -46.1731  -56.9188 H         1 UNK         0.0775 
    110 H110       34.2854  -44.5382  -57.7184 H         1 UNK         0.0840 
    111 H111       32.7835  -44.6176  -58.6012 H         1 UNK         0.0840 
    112 H112       31.4600  -47.9267  -55.2207 H         1 UNK         0.2987 
    113 H113       30.4967  -49.0196  -53.2079 H         1 UNK         0.0785 
    114 H114       30.6505  -51.1684  -51.9528 H         1 UNK         0.0798 
    115 H115       30.8279  -52.0568  -53.4650 H         1 UNK         0.0798 
    116 H116       29.3362  -51.1969  -53.1184 H         1 UNK         0.0798 
    117 H117       32.6802  -48.8648  -52.9937 H         1 UNK         0.3079 
    118 H118       35.4700  -50.9429  -53.5486 H         1 UNK         0.0794 
    119 H119       35.2934  -49.8338  -55.7865 H         1 UNK         0.0786 
    120 H120       36.4137  -48.9713  -54.7458 H         1 UNK         0.0786 
    121 H121       34.7909  -48.3337  -55.0214 H         1 UNK         0.0786 
    122 H122       35.1605  -48.2503  -52.5920 H         1 UNK         0.3032 
    123 H123       34.2721  -48.9110  -49.3013 H         1 UNK         0.1094 
    124 H124       37.1612  -48.3458  -50.1770 H         1 UNK         0.0794 
    125 H125       36.4591  -47.9412  -48.6093 H         1 UNK         0.0794 
    126 H126       36.6564  -49.6210  -49.0774 H         1 UNK         0.0794 
    127 H127       35.4382  -46.6228  -50.6117 H         1 UNK         0.3016 
@<TRIPOS>BOND
     1    1    2 1    
     2    1   67 1    
     3    1   68 1    
     4    1   69 1    
     5    2    3 2    
     6    2    4 am   BACKBONE|DICT|INTERRES
     7    4    5 1    
     8    4   70 1    
     9    5    6 1    
    10    5   65 1    
    11    5   71 1    
    12    6    7 1    
    13    6   72 1    
    14    6   73 1    
    15    7    8 1    
    16    8    9 1    
    17    8   74 1    
    18    8   75 1    
    19    9   10 ar   
    20    9   14 ar   
    21   10   11 ar   
    22   10   76 1    
    23   11   12 ar   
    24   11   48 1    
    25   12   13 ar   
    26   12   77 1    
    27   13   14 ar   
    28   13   15 1    
    29   14   78 1    
    30   15   16 1    
    31   15   79 1    
    32   15   80 1    
    33   16   17 1    
    34   17   18 1    
    35   17   81 1    
    36   17   82 1    
    37   18   19 1    
    38   18   22 1    
    39   18   83 1    
    40   19   20 am   BACKBONE|DICT|INTERRES
    41   19   21 2    
    42   20   84 1    
    43   20   85 1    
    44   22   23 am   BACKBONE|DICT|INTERRES
    45   22   86 1    
    46   23   24 2    
    47   23   25 1    
    48   25   26 1    
    49   25   27 1    
    50   25   87 1    
    51   26   88 1    
    52   26   89 1    
    53   26   90 1    
    54   27   28 am   BACKBONE|DICT|INTERRES
    55   27   91 1    
    56   28   29 2    
    57   28   30 1    
    58   30   31 1    
    59   30   32 1    
    60   30   92 1    
    61   31   93 1    
    62   31   94 1    
    63   31   95 1    
    64   32   33 am   BACKBONE|DICT|INTERRES
    65   32   96 1    
    66   33   34 2    
    67   33   35 1    
    68   35   36 1    
    69   35   37 1    
    70   35   97 1    
    71   36   98 1    
    72   36   99 1    
    73   36  100 1    
    74   37   38 am   BACKBONE|DICT|INTERRES
    75   37  101 1    
    76   38   39 2    
    77   38   40 1    
    78   40   41 1    
    79   40   42 1    
    80   40  102 1    
    81   41  103 1    
    82   41  104 1    
    83   41  105 1    
    84   42   43 am   BACKBONE|DICT|INTERRES
    85   42  106 1    
    86   43   44 2    
    87   43   45 1    
    88   45   46 1    
    89   45   49 1    
    90   45  107 1    
    91   46   47 1    
    92   46  108 1    
    93   46  109 1    
    94   47   48 1    
    95   48  110 1    
    96   48  111 1    
    97   49   50 am   BACKBONE|DICT|INTERRES
    98   49  112 1    
    99   50   51 2    
   100   50   52 1    
   101   52   53 1    
   102   52   54 1    
   103   52  113 1    
   104   53  114 1    
   105   53  115 1    
   106   53  116 1    
   107   54   55 am   BACKBONE|DICT|INTERRES
   108   54  117 1    
   109   55   56 2    
   110   55   57 1    
   111   57   58 1    
   112   57   59 1    
   113   57  118 1    
   114   58  119 1    
   115   58  120 1    
   116   58  121 1    
   117   59   60 am   BACKBONE|DICT|INTERRES
   118   59  122 1    
   119   60   61 2    
   120   60   62 1    
   121   62   63 1    
   122   62   64 1    
   123   62  123 1    
   124   63  124 1    
   125   63  125 1    
   126   63  126 1    
   127   64   65 am   BACKBONE|DICT|INTERRES
   128   64  127 1    
   129   65   66 2    
@<TRIPOS>SUBSTRUCTURE
     1 UNK         1 GROUP             0       ****    0 ROOT    
