@<TRIPOS>MOLECULE
3R134
127   129    1
SMALL
USER_CHARGES


@<TRIPOS>ATOM
      1 CA         34.5463  -43.0560  -50.4491 C.3       0 UNK        -0.1968 
      2 C          34.9395  -44.3819  -51.0838 C.2       0 UNK         0.4852 
      3 O          35.7505  -45.1163  -50.5173 O.2       0 UNK        -0.5359 
      4 N          34.3740  -44.6907  -52.2570 N.am      1 UNK        -0.4300 
      5 CA         34.5877  -45.9363  -52.9916 C.3       1 UNK         0.0863 
      6 C6         34.2201  -45.7965  -54.4887 C.3       11 UNK        -0.0953 
      7 S7         35.1491  -44.5149  -55.4018 S.3       11 UNK        -0.2369 
      8 C8         34.1186  -43.0055  -55.2829 C.3       11 UNK         0.0226 
      9 C9         32.6191  -43.2628  -55.3852 C.ar      11 UNK        -0.0699 
     10 C10        31.7944  -43.0180  -54.2827 C.ar      11 UNK        -0.0804 
     11 C11        30.4262  -43.2975  -54.3360 C.ar      11 UNK        -0.0871 
     12 C12        29.8804  -43.8050  -55.5190 C.ar      11 UNK        -0.1008 
     13 C13        30.6920  -44.0572  -56.6297 C.ar      11 UNK        -0.0735 
     14 C14        32.0597  -43.7731  -56.5613 C.ar      11 UNK        -0.0945 
     15 C15        30.1034  -44.7063  -57.8740 C.3       11 UNK         0.0169 
     16 S16        29.5907  -43.5158  -59.1568 S.3       11 UNK        -0.2669 
     17 C17        28.2901  -42.5088  -58.3518 C.3       11 UNK        -0.0850 
     18 CA         26.8569  -43.1064  -58.4015 C.3       10 UNK         0.0855 
     19 C          26.2582  -43.1552  -59.8393 C.2       10 UNK         0.5543 
     20 N          25.7390  -44.2818  -60.3151 N.am      10 UNK        -0.7343 
     21 O          26.2455  -42.1404  -60.5318 O.2       10 UNK        -0.5027 
     22 N          26.7836  -44.3756  -57.6673 N.am      10 UNK        -0.4495 
     23 C          25.7245  -44.8210  -56.9834 C.2       10 UNK         0.4903 
     24 O          24.6867  -44.1759  -56.8276 O.2       10 UNK        -0.4860 
     25 CA         25.8649  -46.2288  -56.3695 C.3       9 UNK         0.0227 
     26 CB         24.5092  -46.8517  -55.9776 C.3       9 UNK        -0.1964 
     27 N          26.6377  -47.1680  -57.1967 N.am      9 UNK        -0.4231 
     28 C          26.3792  -47.5297  -58.4637 C.2       9 UNK         0.5014 
     29 O          25.4751  -47.0475  -59.1468 O.2       9 UNK        -0.5270 
     30 CA         27.2899  -48.5977  -59.0839 C.3       8 UNK         0.0284 
     31 CB         28.5008  -47.9385  -59.7672 C.3       8 UNK        -0.1977 
     32 N          27.7566  -49.5654  -58.0861 N.am      8 UNK        -0.4342 
     33 C          27.2281  -50.7814  -57.9008 C.2       8 UNK         0.5039 
     34 O          26.2708  -51.2188  -58.5412 O.2       8 UNK        -0.5547 
     35 CA         27.8957  -51.6812  -56.8477 C.3       7 UNK         0.0281 
     36 CB         29.2468  -52.2091  -57.3589 C.3       7 UNK        -0.1963 
     37 N          28.0830  -51.0400  -55.5444 N.am      7 UNK        -0.4444 
     38 C          27.0970  -50.7963  -54.6686 C.2       7 UNK         0.5104 
     39 O          25.9043  -50.9882  -54.9053 O.2       7 UNK        -0.5100 
     40 CA         27.5138  -50.2704  -53.2848 C.3       6 UNK         0.0396 
     41 CB         28.1355  -51.3893  -52.4324 C.3       6 UNK        -0.1801 
     42 N          28.4584  -49.1616  -53.4113 N.am      6 UNK        -0.4747 
     43 C          28.0936  -47.8733  -53.4873 C.2       6 UNK         0.5012 
     44 O          26.9382  -47.4900  -53.3064 O.2       6 UNK        -0.5003 
     45 CA         29.1776  -46.8390  -53.8707 C.3       5 UNK         0.0782 
     46 C46        29.5439  -45.8895  -52.6992 C.3       11 UNK        -0.0868 
     47 S47        28.4429  -44.4301  -52.6693 S.3       11 UNK        -0.2515 
     48 C48        29.5585  -43.0479  -53.1038 C.3       11 UNK         0.0199 
     49 N          30.3541  -47.4518  -54.5005 N.am      5 UNK        -0.4607 
     50 C          30.3289  -47.9543  -55.7429 C.2       4 UNK         0.5031 
     51 O          29.3296  -47.9157  -56.4603 O.2       4 UNK        -0.5119 
     52 CA         31.5801  -48.6687  -56.2733 C.3       4 UNK         0.0263 
     53 CB         32.4622  -47.7070  -57.0824 C.3       4 UNK        -0.1967 
     54 N          32.3639  -49.3581  -55.2425 N.am      4 UNK        -0.4237 
     55 C          31.9195  -50.4322  -54.5715 C.2       3 UNK         0.4908 
     56 O          30.7621  -50.8455  -54.6445 O.2       3 UNK        -0.5102 
     57 CA         32.9327  -51.1752  -53.6885 C.3       3 UNK         0.0241 
     58 CB         34.0355  -51.8290  -54.5389 C.3       3 UNK        -0.1971 
     59 N          33.5315  -50.2885  -52.6930 N.am      3 UNK        -0.4139 
     60 C          32.9482  -49.9562  -51.5334 C.2       2 UNK         0.5016 
     61 O          31.8814  -50.4274  -51.1376 O.2       2 UNK        -0.5319 
     62 CA         33.6680  -48.8964  -50.6775 C.3       2 UNK         0.0286 
     63 CB         34.6766  -49.5627  -49.7279 C.3       2 UNK        -0.1963 
     64 N          34.3457  -47.8451  -51.4505 N.am      2 UNK        -0.4790 
     65 C          33.7408  -47.0466  -52.3406 C.2       1 UNK         0.5024 
     66 O          32.5530  -47.1544  -52.6491 O.2       1 UNK        -0.4888 
     67 H67        34.0928  -43.2278  -49.4732 H         1 UNK         0.0892 
     68 H68        35.4282  -42.4313  -50.3098 H         1 UNK         0.0892 
     69 H69        33.8338  -42.5039  -51.0616 H         1 UNK         0.0892 
     70 H70        33.6969  -44.0662  -52.6650 H         1 UNK         0.3107 
     71 H71        35.6428  -46.2116  -52.9271 H         1 UNK         0.0773 
     72 H72        34.4328  -46.7402  -54.9931 H         1 UNK         0.0680 
     73 H73        33.1497  -45.6367  -54.6123 H         1 UNK         0.0680 
     74 H74        34.4151  -42.3194  -56.0773 H         1 UNK         0.0650 
     75 H75        34.3585  -42.4998  -54.3466 H         1 UNK         0.0650 
     76 H76        32.2189  -42.6146  -53.3742 H         1 UNK         0.1397 
     77 H77        28.8229  -44.0229  -55.5659 H         1 UNK         0.1363 
     78 H78        32.6962  -43.9790  -57.4110 H         1 UNK         0.1355 
     79 H79        29.2709  -45.3529  -57.6018 H         1 UNK         0.0707 
     80 H80        30.8474  -45.3686  -58.3168 H         1 UNK         0.0707 
     81 H81        28.5704  -42.3024  -57.3202 H         1 UNK         0.1034 
     82 H82        28.2934  -41.5289  -58.8326 H         1 UNK         0.1034 
     83 H83        26.2227  -42.3935  -57.8711 H         1 UNK         0.0482 
     84 H84        25.3509  -44.2856  -61.2446 H         1 UNK         0.3460 
     85 H85        25.7055  -45.1270  -59.7563 H         1 UNK         0.3460 
     86 H86        27.5690  -44.9940  -57.7919 H         1 UNK         0.2989 
     87 H87        26.4359  -46.0851  -55.4537 H         1 UNK         0.0559 
     88 H88        23.8605  -46.9857  -56.8438 H         1 UNK         0.0848 
     89 H89        23.9777  -46.2200  -55.2649 H         1 UNK         0.0848 
     90 H90        24.6453  -47.8245  -55.5043 H         1 UNK         0.0848 
     91 H91        27.4649  -47.5680  -56.7629 H         1 UNK         0.3144 
     92 H92        26.7127  -49.1090  -59.8573 H         1 UNK         0.0727 
     93 H93        29.1386  -47.4128  -59.0572 H         1 UNK         0.0790 
     94 H94        28.1794  -47.2119  -60.5150 H         1 UNK         0.0790 
     95 H95        29.1145  -48.6793  -60.2796 H         1 UNK         0.0790 
     96 H96        28.5051  -49.2507  -57.4749 H         1 UNK         0.3215 
     97 H97        27.2425  -52.5441  -56.6991 H         1 UNK         0.0863 
     98 H98        29.6823  -52.9237  -56.6601 H         1 UNK         0.0808 
     99 H99        29.9690  -51.4063  -57.5060 H         1 UNK         0.0808 
    100 H100       29.1294  -52.7215  -58.3147 H         1 UNK         0.0808 
    101 H101       29.0449  -50.8951  -55.2421 H         1 UNK         0.3118 
    102 H102       26.6123  -49.9328  -52.7689 H         1 UNK         0.0546 
    103 H103       27.4360  -52.2169  -52.3080 H         1 UNK         0.0828 
    104 H104       28.3921  -51.0296  -51.4359 H         1 UNK         0.0828 
    105 H105       29.0423  -51.7957  -52.8806 H         1 UNK         0.0828 
    106 H106       29.4235  -49.4070  -53.5948 H         1 UNK         0.3005 
    107 H107       28.7177  -46.2303  -54.6502 H         1 UNK         0.1257 
    108 H108       30.5696  -45.5349  -52.7969 H         1 UNK         0.0775 
    109 H109       29.5042  -46.3999  -51.7351 H         1 UNK         0.0775 
    110 H110       28.9574  -42.1540  -53.2746 H         1 UNK         0.0840 
    111 H111       30.1815  -42.8344  -52.2338 H         1 UNK         0.0840 
    112 H112       31.2008  -47.4992  -53.9389 H         1 UNK         0.2987 
    113 H113       31.2350  -49.4390  -56.9655 H         1 UNK         0.0785 
    114 H114       32.6525  -46.7769  -56.5513 H         1 UNK         0.0798 
    115 H115       31.9697  -47.4409  -58.0179 H         1 UNK         0.0798 
    116 H116       33.4205  -48.1553  -57.3446 H         1 UNK         0.0798 
    117 H117       33.3209  -49.0657  -55.1200 H         1 UNK         0.3079 
    118 H118       32.3957  -51.9751  -53.1733 H         1 UNK         0.0794 
    119 H119       34.6501  -51.0923  -55.0573 H         1 UNK         0.0786 
    120 H120       33.6050  -52.4859  -55.2963 H         1 UNK         0.0786 
    121 H121       34.6965  -52.4392  -53.9231 H         1 UNK         0.0786 
    122 H122       34.4136  -49.8552  -52.9225 H         1 UNK         0.3032 
    123 H123       32.9019  -48.4071  -50.0716 H         1 UNK         0.1094 
    124 H124       35.1092  -48.8389  -49.0368 H         1 UNK         0.0794 
    125 H125       34.1947  -50.3342  -49.1253 H         1 UNK         0.0794 
    126 H126       35.4933  -50.0375  -50.2731 H         1 UNK         0.0794 
    127 H127       35.3106  -47.6556  -51.2140 H         1 UNK         0.3016 
@<TRIPOS>BOND
     1    1    2 1    
     2    1   67 1    
     3    1   68 1    
     4    1   69 1    
     5    2    3 2    
     6    2    4 am   BACKBONE|DICT|INTERRES
     7    4    5 1    
     8    4   70 1    
     9    5    6 1    
    10    5   65 1    
    11    5   71 1    
    12    6    7 1    
    13    6   72 1    
    14    6   73 1    
    15    7    8 1    
    16    8    9 1    
    17    8   74 1    
    18    8   75 1    
    19    9   10 ar   
    20    9   14 ar   
    21   10   11 ar   
    22   10   76 1    
    23   11   12 ar   
    24   11   48 1    
    25   12   13 ar   
    26   12   77 1    
    27   13   14 ar   
    28   13   15 1    
    29   14   78 1    
    30   15   16 1    
    31   15   79 1    
    32   15   80 1    
    33   16   17 1    
    34   17   18 1    
    35   17   81 1    
    36   17   82 1    
    37   18   19 1    
    38   18   22 1    
    39   18   83 1    
    40   19   20 am   BACKBONE|DICT|INTERRES
    41   19   21 2    
    42   20   84 1    
    43   20   85 1    
    44   22   23 am   BACKBONE|DICT|INTERRES
    45   22   86 1    
    46   23   24 2    
    47   23   25 1    
    48   25   26 1    
    49   25   27 1    
    50   25   87 1    
    51   26   88 1    
    52   26   89 1    
    53   26   90 1    
    54   27   28 am   BACKBONE|DICT|INTERRES
    55   27   91 1    
    56   28   29 2    
    57   28   30 1    
    58   30   31 1    
    59   30   32 1    
    60   30   92 1    
    61   31   93 1    
    62   31   94 1    
    63   31   95 1    
    64   32   33 am   BACKBONE|DICT|INTERRES
    65   32   96 1    
    66   33   34 2    
    67   33   35 1    
    68   35   36 1    
    69   35   37 1    
    70   35   97 1    
    71   36   98 1    
    72   36   99 1    
    73   36  100 1    
    74   37   38 am   BACKBONE|DICT|INTERRES
    75   37  101 1    
    76   38   39 2    
    77   38   40 1    
    78   40   41 1    
    79   40   42 1    
    80   40  102 1    
    81   41  103 1    
    82   41  104 1    
    83   41  105 1    
    84   42   43 am   BACKBONE|DICT|INTERRES
    85   42  106 1    
    86   43   44 2    
    87   43   45 1    
    88   45   46 1    
    89   45   49 1    
    90   45  107 1    
    91   46   47 1    
    92   46  108 1    
    93   46  109 1    
    94   47   48 1    
    95   48  110 1    
    96   48  111 1    
    97   49   50 am   BACKBONE|DICT|INTERRES
    98   49  112 1    
    99   50   51 2    
   100   50   52 1    
   101   52   53 1    
   102   52   54 1    
   103   52  113 1    
   104   53  114 1    
   105   53  115 1    
   106   53  116 1    
   107   54   55 am   BACKBONE|DICT|INTERRES
   108   54  117 1    
   109   55   56 2    
   110   55   57 1    
   111   57   58 1    
   112   57   59 1    
   113   57  118 1    
   114   58  119 1    
   115   58  120 1    
   116   58  121 1    
   117   59   60 am   BACKBONE|DICT|INTERRES
   118   59  122 1    
   119   60   61 2    
   120   60   62 1    
   121   62   63 1    
   122   62   64 1    
   123   62  123 1    
   124   63  124 1    
   125   63  125 1    
   126   63  126 1    
   127   64   65 am   BACKBONE|DICT|INTERRES
   128   64  127 1    
   129   65   66 2    
@<TRIPOS>SUBSTRUCTURE
     1 UNK         1 GROUP             0       ****    0 ROOT    
