@<TRIPOS>MOLECULE
3R134
127   129    1
SMALL
USER_CHARGES


@<TRIPOS>ATOM
      1 CA         36.6545  -44.7140  -50.0368 C.3       0 UNK        -0.1968 
      2 C          35.3986  -44.4284  -49.2155 C.2       0 UNK         0.4852 
      3 O          35.5140  -43.9287  -48.0971 O.2       0 UNK        -0.5359 
      4 N          34.1867  -44.7057  -49.7179 N.am      1 UNK        -0.4300 
      5 CA         33.8776  -45.3686  -50.9903 C.3       1 UNK         0.0863 
      6 C6         32.3724  -45.2627  -51.3399 C.3       11 UNK        -0.0953 
      7 S7         31.8062  -43.5398  -51.5173 S.3       11 UNK        -0.2369 
      8 C8         30.3401  -43.7655  -52.5842 C.3       11 UNK         0.0226 
      9 C9         30.6075  -43.8895  -54.0872 C.ar      11 UNK        -0.0699 
     10 C10        31.8871  -44.0819  -54.6289 C.ar      11 UNK        -0.0804 
     11 C11        32.0715  -44.1803  -56.0113 C.ar      11 UNK        -0.0871 
     12 C12        30.9689  -44.0725  -56.8612 C.ar      11 UNK        -0.1008 
     13 C13        29.6858  -43.9019  -56.3395 C.ar      11 UNK        -0.0735 
     14 C14        29.5132  -43.8120  -54.9556 C.ar      11 UNK        -0.0945 
     15 C15        28.4873  -43.8561  -57.2720 C.3       11 UNK         0.0169 
     16 S16        27.6939  -42.2171  -57.2844 S.3       11 UNK        -0.2669 
     17 C17        26.5618  -42.3846  -58.7085 C.3       11 UNK        -0.0850 
     18 CA         25.1288  -42.8336  -58.3177 C.3       10 UNK         0.0855 
     19 C          24.2006  -42.8204  -59.5688 C.2       10 UNK         0.5543 
     20 N          23.7824  -43.9630  -60.1031 N.am      10 UNK        -0.7343 
     21 O          23.8561  -41.7493  -60.0619 O.2       10 UNK        -0.5027 
     22 N          25.1467  -44.1151  -57.6000 N.am      10 UNK        -0.4495 
     23 C          24.1282  -44.6415  -56.9114 C.2       10 UNK         0.4903 
     24 O          23.0790  -44.0392  -56.6791 O.2       10 UNK        -0.4860 
     25 CA         24.3139  -46.0862  -56.3980 C.3       9 UNK         0.0227 
     26 CB         22.9893  -46.8772  -56.4049 C.3       9 UNK        -0.1964 
     27 N          25.3674  -46.8556  -57.0814 N.am      9 UNK        -0.4231 
     28 C          25.4540  -47.1429  -58.3933 C.2       9 UNK         0.5014 
     29 O          24.6641  -46.7171  -59.2379 O.2       9 UNK        -0.5270 
     30 CA         26.6333  -48.0201  -58.8602 C.3       8 UNK         0.0284 
     31 CB         27.7130  -47.1536  -59.5280 C.3       8 UNK        -0.1977 
     32 N          27.2411  -48.8073  -57.7834 N.am      8 UNK        -0.4342 
     33 C          26.6379  -49.8405  -57.1747 C.2       8 UNK         0.5039 
     34 O          25.5578  -50.3045  -57.5428 O.2       8 UNK        -0.5547 
     35 CA         27.3203  -50.4544  -55.9359 C.3       7 UNK         0.0281 
     36 CB         27.9807  -51.7930  -56.3061 C.3       7 UNK        -0.1963 
     37 N          28.3081  -49.5959  -55.2712 N.am      7 UNK        -0.4444 
     38 C          28.0943  -48.3599  -54.7950 C.2       7 UNK         0.5104 
     39 O          27.0053  -47.7863  -54.8387 O.2       7 UNK        -0.5100 
     40 CA         29.3152  -47.6090  -54.2358 C.3       6 UNK         0.0396 
     41 CB         29.4775  -47.8912  -52.7351 C.3       6 UNK        -0.1801 
     42 N          30.5718  -47.9148  -54.9272 N.am      6 UNK        -0.4747 
     43 C          30.8053  -47.7600  -56.2411 C.2       6 UNK         0.5012 
     44 O          29.9602  -47.3702  -57.0481 O.2       6 UNK        -0.5003 
     45 CA         32.1926  -48.2048  -56.7403 C.3       5 UNK         0.0782 
     46 C46        33.3248  -47.2199  -56.3445 C.3       11 UNK        -0.0868 
     47 S47        33.5753  -45.9142  -57.5912 S.3       11 UNK        -0.2515 
     48 C48        33.4630  -44.3946  -56.5905 C.3       11 UNK         0.0199 
     49 N          32.4694  -49.5571  -56.2566 N.am      5 UNK        -0.4607 
     50 C          32.0218  -50.6792  -56.8347 C.2       4 UNK         0.5031 
     51 O          31.3953  -50.6994  -57.8937 O.2       4 UNK        -0.5119 
     52 CA         32.3184  -52.0086  -56.1159 C.3       4 UNK         0.0263 
     53 CB         33.5496  -52.6889  -56.7358 C.3       4 UNK        -0.1967 
     54 N          32.5248  -51.8636  -54.6718 N.am      4 UNK        -0.4237 
     55 C          31.5682  -51.5171  -53.7993 C.2       3 UNK         0.4908 
     56 O          30.3995  -51.2978  -54.1137 O.2       3 UNK        -0.5102 
     57 CA         32.0042  -51.3270  -52.3371 C.3       3 UNK         0.0241 
     58 CB         32.0518  -52.6785  -51.6064 C.3       3 UNK        -0.1971 
     59 N          33.2891  -50.6325  -52.1803 N.am      3 UNK        -0.4139 
     60 C          33.5593  -49.4110  -52.6602 C.2       2 UNK         0.5016 
     61 O          32.7891  -48.7673  -53.3781 O.2       2 UNK        -0.5319 
     62 CA         34.9277  -48.8067  -52.3145 C.3       2 UNK         0.0286 
     63 CB         35.9211  -49.0313  -53.4654 C.3       2 UNK        -0.1963 
     64 N          34.7716  -47.3701  -52.0831 N.am      2 UNK        -0.4790 
     65 C          34.2790  -46.8551  -50.9501 C.2       1 UNK         0.5024 
     66 O          34.0960  -47.5120  -49.9222 O.2       1 UNK        -0.4888 
     67 H67        36.5595  -44.3471  -51.0578 H         1 UNK         0.0892 
     68 H68        37.5174  -44.2174  -49.5935 H         1 UNK         0.0892 
     69 H69        36.8654  -45.7826  -50.0618 H         1 UNK         0.0892 
     70 H70        33.3795  -44.5005  -49.1476 H         1 UNK         0.3107 
     71 H71        34.4418  -44.8730  -51.7822 H         1 UNK         0.0773 
     72 H72        31.7595  -45.7446  -50.5752 H         1 UNK         0.0680 
     73 H73        32.1655  -45.7915  -52.2726 H         1 UNK         0.0680 
     74 H74        29.6864  -42.9076  -52.4203 H         1 UNK         0.0650 
     75 H75        29.7845  -44.6419  -52.2473 H         1 UNK         0.0650 
     76 H76        32.7502  -44.1538  -53.9845 H         1 UNK         0.1397 
     77 H77        31.1106  -44.1514  -57.9305 H         1 UNK         0.1363 
     78 H78        28.5174  -43.6794  -54.5546 H         1 UNK         0.1355 
     79 H79        27.7715  -44.6144  -56.9545 H         1 UNK         0.0707 
     80 H80        28.7900  -44.1177  -58.2870 H         1 UNK         0.0707 
     81 H81        26.5245  -41.4104  -59.2004 H         1 UNK         0.1034 
     82 H82        26.9926  -43.0669  -59.4438 H         1 UNK         0.1034 
     83 H83        24.7248  -42.0880  -57.6302 H         1 UNK         0.0482 
     84 H84        24.0680  -44.8567  -59.7157 H         1 UNK         0.3460 
     85 H85        23.1809  -43.9377  -60.9108 H         1 UNK         0.3460 
     86 H86        25.9577  -44.6929  -57.7481 H         1 UNK         0.2989 
     87 H87        24.6387  -45.9952  -55.3606 H         1 UNK         0.0559 
     88 H88        22.5734  -46.9579  -57.4098 H         1 UNK         0.0848 
     89 H89        22.2375  -46.3942  -55.7794 H         1 UNK         0.0848 
     90 H90        23.1287  -47.8867  -56.0180 H         1 UNK         0.0848 
     91 H91        26.0700  -47.2475  -56.4583 H         1 UNK         0.3144 
     92 H92        26.2441  -48.7136  -59.6086 H         1 UNK         0.0727 
     93 H93        28.5222  -47.7659  -59.9267 H         1 UNK         0.0790 
     94 H94        27.2989  -46.5823  -60.3601 H         1 UNK         0.0790 
     95 H95        28.1491  -46.4418  -58.8277 H         1 UNK         0.0790 
     96 H96        28.1366  -48.4843  -57.4312 H         1 UNK         0.3215 
     97 H97        26.5303  -50.6530  -55.2090 H         1 UNK         0.0863 
     98 H98        27.2786  -52.4500  -56.8214 H         1 UNK         0.0808 
     99 H99        28.3223  -52.3264  -55.4192 H         1 UNK         0.0808 
    100 H100       28.8380  -51.6497  -56.9649 H         1 UNK         0.0808 
    101 H101       29.2219  -50.0091  -55.1092 H         1 UNK         0.3118 
    102 H102       29.1284  -46.5424  -54.3647 H         1 UNK         0.0546 
    103 H103       30.3026  -47.3219  -52.3093 H         1 UNK         0.0828 
    104 H104       29.6680  -48.9476  -52.5446 H         1 UNK         0.0828 
    105 H105       28.5759  -47.6165  -52.1862 H         1 UNK         0.0828 
    106 H106       31.3347  -48.2568  -54.3443 H         1 UNK         0.3005 
    107 H107       32.1414  -48.2480  -57.8312 H         1 UNK         0.1257 
    108 H108       34.2747  -47.7521  -56.2797 H         1 UNK         0.0775 
    109 H109       33.1653  -46.7900  -55.3537 H         1 UNK         0.0775 
    110 H110       34.2179  -44.4302  -55.8033 H         1 UNK         0.0840 
    111 H111       33.7173  -43.5402  -57.2192 H         1 UNK         0.0840 
    112 H112       32.9089  -49.6185  -55.3475 H         1 UNK         0.2987 
    113 H113       31.4541  -52.6592  -56.2678 H         1 UNK         0.0785 
    114 H114       33.4143  -52.8377  -57.8082 H         1 UNK         0.0798 
    115 H115       33.7256  -53.6703  -56.2950 H         1 UNK         0.0798 
    116 H116       34.4524  -52.0916  -56.6015 H         1 UNK         0.0798 
    117 H117       33.4598  -52.0190  -54.3241 H         1 UNK         0.3079 
    118 H118       31.2451  -50.7097  -51.8528 H         1 UNK         0.0794 
    119 H119       32.2445  -52.5475  -50.5414 H         1 UNK         0.0786 
    120 H120       32.8260  -53.3320  -52.0104 H         1 UNK         0.0786 
    121 H121       31.1004  -53.2050  -51.6979 H         1 UNK         0.0786 
    122 H122       33.9836  -51.0964  -51.6121 H         1 UNK         0.3032 
    123 H123       35.3185  -49.2812  -51.4110 H         1 UNK         0.1094 
    124 H124       35.5741  -48.5819  -54.3961 H         1 UNK         0.0794 
    125 H125       36.8976  -48.6059  -53.2330 H         1 UNK         0.0794 
    126 H126       36.0696  -50.0956  -53.6527 H         1 UNK         0.0794 
    127 H127       34.8501  -46.7787  -52.8976 H         1 UNK         0.3016 
@<TRIPOS>BOND
     1    1    2 1    
     2    1   67 1    
     3    1   68 1    
     4    1   69 1    
     5    2    3 2    
     6    2    4 am   BACKBONE|DICT|INTERRES
     7    4    5 1    
     8    4   70 1    
     9    5    6 1    
    10    5   65 1    
    11    5   71 1    
    12    6    7 1    
    13    6   72 1    
    14    6   73 1    
    15    7    8 1    
    16    8    9 1    
    17    8   74 1    
    18    8   75 1    
    19    9   10 ar   
    20    9   14 ar   
    21   10   11 ar   
    22   10   76 1    
    23   11   12 ar   
    24   11   48 1    
    25   12   13 ar   
    26   12   77 1    
    27   13   14 ar   
    28   13   15 1    
    29   14   78 1    
    30   15   16 1    
    31   15   79 1    
    32   15   80 1    
    33   16   17 1    
    34   17   18 1    
    35   17   81 1    
    36   17   82 1    
    37   18   19 1    
    38   18   22 1    
    39   18   83 1    
    40   19   20 am   BACKBONE|DICT|INTERRES
    41   19   21 2    
    42   20   84 1    
    43   20   85 1    
    44   22   23 am   BACKBONE|DICT|INTERRES
    45   22   86 1    
    46   23   24 2    
    47   23   25 1    
    48   25   26 1    
    49   25   27 1    
    50   25   87 1    
    51   26   88 1    
    52   26   89 1    
    53   26   90 1    
    54   27   28 am   BACKBONE|DICT|INTERRES
    55   27   91 1    
    56   28   29 2    
    57   28   30 1    
    58   30   31 1    
    59   30   32 1    
    60   30   92 1    
    61   31   93 1    
    62   31   94 1    
    63   31   95 1    
    64   32   33 am   BACKBONE|DICT|INTERRES
    65   32   96 1    
    66   33   34 2    
    67   33   35 1    
    68   35   36 1    
    69   35   37 1    
    70   35   97 1    
    71   36   98 1    
    72   36   99 1    
    73   36  100 1    
    74   37   38 am   BACKBONE|DICT|INTERRES
    75   37  101 1    
    76   38   39 2    
    77   38   40 1    
    78   40   41 1    
    79   40   42 1    
    80   40  102 1    
    81   41  103 1    
    82   41  104 1    
    83   41  105 1    
    84   42   43 am   BACKBONE|DICT|INTERRES
    85   42  106 1    
    86   43   44 2    
    87   43   45 1    
    88   45   46 1    
    89   45   49 1    
    90   45  107 1    
    91   46   47 1    
    92   46  108 1    
    93   46  109 1    
    94   47   48 1    
    95   48  110 1    
    96   48  111 1    
    97   49   50 am   BACKBONE|DICT|INTERRES
    98   49  112 1    
    99   50   51 2    
   100   50   52 1    
   101   52   53 1    
   102   52   54 1    
   103   52  113 1    
   104   53  114 1    
   105   53  115 1    
   106   53  116 1    
   107   54   55 am   BACKBONE|DICT|INTERRES
   108   54  117 1    
   109   55   56 2    
   110   55   57 1    
   111   57   58 1    
   112   57   59 1    
   113   57  118 1    
   114   58  119 1    
   115   58  120 1    
   116   58  121 1    
   117   59   60 am   BACKBONE|DICT|INTERRES
   118   59  122 1    
   119   60   61 2    
   120   60   62 1    
   121   62   63 1    
   122   62   64 1    
   123   62  123 1    
   124   63  124 1    
   125   63  125 1    
   126   63  126 1    
   127   64   65 am   BACKBONE|DICT|INTERRES
   128   64  127 1    
   129   65   66 2    
@<TRIPOS>SUBSTRUCTURE
     1 UNK         1 GROUP             0       ****    0 ROOT    
