@<TRIPOS>MOLECULE
3R134
127   129    1
SMALL
USER_CHARGES


@<TRIPOS>ATOM
      1 CA         36.8010  -44.4160  -47.6864 C.3       0 UNK        -0.1968 
      2 C          36.2564  -44.6954  -49.0798 C.2       0 UNK         0.4852 
      3 O          37.0356  -44.8221  -50.0259 O.2       0 UNK        -0.5359 
      4 N          34.9266  -44.7839  -49.2141 N.am      1 UNK        -0.4300 
      5 CA         34.2311  -45.1137  -50.4602 C.3       1 UNK         0.0863 
      6 C6         32.7324  -44.7274  -50.3694 C.3       11 UNK        -0.0953 
      7 S7         31.8343  -44.9127  -51.9449 S.3       11 UNK        -0.2369 
      8 C8         32.1696  -43.3122  -52.7323 C.3       11 UNK         0.0226 
      9 C9         31.7654  -43.3477  -54.1960 C.ar      11 UNK        -0.0699 
     10 C10        32.6558  -43.8358  -55.1563 C.ar      11 UNK        -0.0804 
     11 C11        32.2900  -43.8825  -56.5049 C.ar      11 UNK        -0.0871 
     12 C12        31.0227  -43.4337  -56.8905 C.ar      11 UNK        -0.1008 
     13 C13        30.1247  -42.9441  -55.9374 C.ar      11 UNK        -0.0735 
     14 C14        30.5021  -42.9013  -54.5918 C.ar      11 UNK        -0.0945 
     15 C15        28.7474  -42.4555  -56.3528 C.3       11 UNK         0.0169 
     16 S16        27.4774  -43.6992  -55.9774 S.3       11 UNK        -0.2669 
     17 C17        25.9529  -42.7480  -56.3164 C.3       11 UNK        -0.0850 
     18 CA         25.0544  -43.3700  -57.4177 C.3       10 UNK         0.0855 
     19 C          25.6061  -43.1539  -58.8592 C.2       10 UNK         0.5543 
     20 N          25.6070  -44.1536  -59.7338 N.am      10 UNK        -0.7343 
     21 O          26.0242  -42.0498  -59.1990 O.2       10 UNK        -0.5027 
     22 N          24.7305  -44.7654  -57.0959 N.am      10 UNK        -0.4495 
     23 C          23.5759  -45.3844  -57.3557 C.2       10 UNK         0.4903 
     24 O          22.5877  -44.8323  -57.8423 O.2       10 UNK        -0.4860 
     25 CA         23.5563  -46.8872  -57.0260 C.3       9 UNK         0.0227 
     26 CB         22.2589  -47.5929  -57.4752 C.3       9 UNK        -0.1964 
     27 N          24.7430  -47.5791  -57.5475 N.am      9 UNK        -0.4231 
     28 C          25.1140  -47.7003  -58.8344 C.2       9 UNK         0.5014 
     29 O          24.4974  -47.1883  -59.7698 O.2       9 UNK        -0.5270 
     30 CA         26.3983  -48.4958  -59.1537 C.3       8 UNK         0.0284 
     31 CB         27.4408  -47.5820  -59.8203 C.3       8 UNK        -0.1977 
     32 N          27.0005  -49.1463  -57.9855 N.am      8 UNK        -0.4342 
     33 C          26.4789  -50.2073  -57.3490 C.2       8 UNK         0.5039 
     34 O          25.5019  -50.8290  -57.7681 O.2       8 UNK        -0.5547 
     35 CA         27.1033  -50.6352  -56.0042 C.3       7 UNK         0.0281 
     36 CB         27.8568  -51.9658  -56.1653 C.3       7 UNK        -0.1963 
     37 N          27.9959  -49.6487  -55.3855 N.am      7 UNK        -0.4444 
     38 C          27.6807  -48.3905  -55.0417 C.2       7 UNK         0.5104 
     39 O          26.5506  -47.9128  -55.1576 O.2       7 UNK        -0.5100 
     40 CA         28.8416  -47.4960  -54.5630 C.3       6 UNK         0.0396 
     41 CB         28.9949  -47.5911  -53.0388 C.3       6 UNK        -0.1801 
     42 N          30.1266  -47.8036  -55.2077 N.am      6 UNK        -0.4747 
     43 C          30.3482  -47.7712  -56.5330 C.2       6 UNK         0.5012 
     44 O          29.4844  -47.4750  -57.3580 O.2       6 UNK        -0.5003 
     45 CA         31.7324  -48.2321  -57.0252 C.3       5 UNK         0.0782 
     46 C46        32.8094  -47.1267  -56.9086 C.3       11 UNK        -0.0868 
     47 S47        32.7211  -45.9594  -58.3076 S.3       11 UNK        -0.2515 
     48 C48        33.2721  -44.4011  -57.5458 C.3       11 UNK         0.0199 
     49 N          32.1256  -49.4563  -56.3271 N.am      5 UNK        -0.4607 
     50 C          31.7671  -50.6886  -56.7141 C.2       4 UNK         0.5031 
     51 O          31.1490  -50.9240  -57.7519 O.2       4 UNK        -0.5119 
     52 CA         32.1520  -51.8647  -55.7973 C.3       4 UNK         0.0263 
     53 CB         33.4422  -52.5333  -56.2983 C.3       4 UNK        -0.1967 
     54 N          32.3207  -51.4858  -54.3926 N.am      4 UNK        -0.4237 
     55 C          31.3332  -51.0603  -53.5920 C.2       3 UNK         0.4908 
     56 O          30.1559  -50.9812  -53.9388 O.2       3 UNK        -0.5102 
     57 CA         31.7393  -50.5878  -52.1854 C.3       3 UNK         0.0241 
     58 CB         31.7429  -51.7677  -51.2007 C.3       3 UNK        -0.1971 
     59 N          33.0376  -49.9037  -52.1413 N.am      3 UNK        -0.4139 
     60 C          33.3478  -48.8042  -52.8421 C.2       2 UNK         0.5016 
     61 O          32.5828  -48.2597  -53.6425 O.2       2 UNK        -0.5319 
     62 CA         34.7592  -48.2338  -52.6490 C.3       2 UNK         0.0286 
     63 CB         35.5173  -48.1913  -53.9868 C.3       2 UNK        -0.1963 
     64 N          34.6743  -46.8831  -52.1003 N.am      2 UNK        -0.4790 
     65 C          34.4342  -46.6033  -50.8129 C.2       1 UNK         0.5024 
     66 O          34.3510  -47.4605  -49.9290 O.2       1 UNK        -0.4888 
     67 H67        37.3810  -43.4935  -47.6881 H         1 UNK         0.0892 
     68 H68        37.4538  -45.2289  -47.3693 H         1 UNK         0.0892 
     69 H69        36.0045  -44.3139  -46.9494 H         1 UNK         0.0892 
     70 H70        34.3412  -44.7031  -48.3949 H         1 UNK         0.3107 
     71 H71        34.6861  -44.5114  -51.2497 H         1 UNK         0.0773 
     72 H72        32.2260  -45.3354  -49.6173 H         1 UNK         0.0680 
     73 H73        32.6298  -43.6930  -50.0369 H         1 UNK         0.0680 
     74 H74        33.2305  -43.0727  -52.6487 H         1 UNK         0.0650 
     75 H75        31.6297  -42.5261  -52.2021 H         1 UNK         0.0650 
     76 H76        33.6325  -44.1842  -54.8497 H         1 UNK         0.1397 
     77 H77        30.7353  -43.4727  -57.9325 H         1 UNK         0.1363 
     78 H78        29.8060  -42.5303  -53.8518 H         1 UNK         0.1355 
     79 H79        28.7219  -42.2235  -57.4190 H         1 UNK         0.0707 
     80 H80        28.5200  -41.5277  -55.8254 H         1 UNK         0.0707 
     81 H81        26.1940  -41.7107  -56.5560 H         1 UNK         0.1034 
     82 H82        25.3885  -42.6980  -55.3840 H         1 UNK         0.1034 
     83 H83        24.1214  -42.8036  -57.3999 H         1 UNK         0.0482 
     84 H84        25.2143  -45.0535  -59.4960 H         1 UNK         0.3460 
     85 H85        25.9603  -43.9899  -60.6629 H         1 UNK         0.3460 
     86 H86        25.4942  -45.3028  -56.7100 H         1 UNK         0.2989 
     87 H87        23.6123  -46.9641  -55.9391 H         1 UNK         0.0559 
     88 H88        22.2710  -48.6503  -57.2108 H         1 UNK         0.0848 
     89 H89        22.1064  -47.5186  -58.5524 H         1 UNK         0.0848 
     90 H90        21.3870  -47.1485  -56.9939 H         1 UNK         0.0848 
     91 H91        25.3607  -47.9646  -56.8395 H         1 UNK         0.3144 
     92 H92        26.1249  -49.2744  -59.8688 H         1 UNK         0.0727 
     93 H93        28.3616  -48.1212  -60.0434 H         1 UNK         0.0790 
     94 H94        27.6941  -46.7309  -59.1865 H         1 UNK         0.0790 
     95 H95        27.0645  -47.1814  -60.7625 H         1 UNK         0.0790 
     96 H96        27.8166  -48.6878  -57.5910 H         1 UNK         0.3215 
     97 H97        26.2750  -50.7948  -55.3110 H         1 UNK         0.0863 
     98 H98        28.1961  -52.3503  -55.2035 H         1 UNK         0.0808 
     99 H99        28.7281  -51.8583  -56.8118 H         1 UNK         0.0808 
    100 H100       27.2157  -52.7301  -56.6068 H         1 UNK         0.0808 
    101 H101       28.9325  -49.9719  -55.1615 H         1 UNK         0.3118 
    102 H102       28.5932  -46.4638  -54.8182 H         1 UNK         0.0546 
    103 H103       29.1875  -48.6143  -52.7176 H         1 UNK         0.0828 
    104 H104       28.0863  -47.2576  -52.5360 H         1 UNK         0.0828 
    105 H105       29.8125  -46.9667  -52.6806 H         1 UNK         0.0828 
    106 H106       30.9048  -48.0342  -54.5946 H         1 UNK         0.3005 
    107 H107       31.6238  -48.4755  -58.0853 H         1 UNK         0.1257 
    108 H108       32.7397  -46.6036  -55.9532 H         1 UNK         0.0775 
    109 H109       33.8057  -47.5704  -56.9345 H         1 UNK         0.0775 
    110 H110       34.2635  -44.5464  -57.1135 H         1 UNK         0.0840 
    111 H111       33.3890  -43.6498  -58.3282 H         1 UNK         0.0840 
    112 H112       32.5710  -49.3277  -55.4267 H         1 UNK         0.2987 
    113 H113       31.3427  -52.5964  -55.8509 H         1 UNK         0.0785 
    114 H114       33.3375  -52.8541  -57.3359 H         1 UNK         0.0798 
    115 H115       33.6849  -53.4193  -55.7112 H         1 UNK         0.0798 
    116 H116       34.2943  -51.8539  -56.2522 H         1 UNK         0.0798 
    117 H117       33.2582  -51.5198  -54.0198 H         1 UNK         0.3079 
    118 H118       30.9869  -49.8714  -51.8518 H         1 UNK         0.0794 
    119 H119       30.7790  -52.2790  -51.2016 H         1 UNK         0.0786 
    120 H120       31.9273  -51.4324  -50.1798 H         1 UNK         0.0786 
    121 H121       32.5040  -52.5065  -51.4552 H         1 UNK         0.0786 
    122 H122       33.7203  -50.2773  -51.4971 H         1 UNK         0.3032 
    123 H123       35.3196  -48.8679  -51.9578 H         1 UNK         0.1094 
    124 H124       35.5823  -49.1849  -54.4322 H         1 UNK         0.0794 
    125 H125       35.0270  -47.5402  -54.7114 H         1 UNK         0.0794 
    126 H126       36.5371  -47.8306  -53.8515 H         1 UNK         0.0794 
    127 H127       34.6688  -46.1282  -52.7704 H         1 UNK         0.3016 
@<TRIPOS>BOND
     1    1    2 1    
     2    1   67 1    
     3    1   68 1    
     4    1   69 1    
     5    2    3 2    
     6    2    4 am   BACKBONE|DICT|INTERRES
     7    4    5 1    
     8    4   70 1    
     9    5    6 1    
    10    5   65 1    
    11    5   71 1    
    12    6    7 1    
    13    6   72 1    
    14    6   73 1    
    15    7    8 1    
    16    8    9 1    
    17    8   74 1    
    18    8   75 1    
    19    9   10 ar   
    20    9   14 ar   
    21   10   11 ar   
    22   10   76 1    
    23   11   12 ar   
    24   11   48 1    
    25   12   13 ar   
    26   12   77 1    
    27   13   14 ar   
    28   13   15 1    
    29   14   78 1    
    30   15   16 1    
    31   15   79 1    
    32   15   80 1    
    33   16   17 1    
    34   17   18 1    
    35   17   81 1    
    36   17   82 1    
    37   18   19 1    
    38   18   22 1    
    39   18   83 1    
    40   19   20 am   BACKBONE|DICT|INTERRES
    41   19   21 2    
    42   20   84 1    
    43   20   85 1    
    44   22   23 am   BACKBONE|DICT|INTERRES
    45   22   86 1    
    46   23   24 2    
    47   23   25 1    
    48   25   26 1    
    49   25   27 1    
    50   25   87 1    
    51   26   88 1    
    52   26   89 1    
    53   26   90 1    
    54   27   28 am   BACKBONE|DICT|INTERRES
    55   27   91 1    
    56   28   29 2    
    57   28   30 1    
    58   30   31 1    
    59   30   32 1    
    60   30   92 1    
    61   31   93 1    
    62   31   94 1    
    63   31   95 1    
    64   32   33 am   BACKBONE|DICT|INTERRES
    65   32   96 1    
    66   33   34 2    
    67   33   35 1    
    68   35   36 1    
    69   35   37 1    
    70   35   97 1    
    71   36   98 1    
    72   36   99 1    
    73   36  100 1    
    74   37   38 am   BACKBONE|DICT|INTERRES
    75   37  101 1    
    76   38   39 2    
    77   38   40 1    
    78   40   41 1    
    79   40   42 1    
    80   40  102 1    
    81   41  103 1    
    82   41  104 1    
    83   41  105 1    
    84   42   43 am   BACKBONE|DICT|INTERRES
    85   42  106 1    
    86   43   44 2    
    87   43   45 1    
    88   45   46 1    
    89   45   49 1    
    90   45  107 1    
    91   46   47 1    
    92   46  108 1    
    93   46  109 1    
    94   47   48 1    
    95   48  110 1    
    96   48  111 1    
    97   49   50 am   BACKBONE|DICT|INTERRES
    98   49  112 1    
    99   50   51 2    
   100   50   52 1    
   101   52   53 1    
   102   52   54 1    
   103   52  113 1    
   104   53  114 1    
   105   53  115 1    
   106   53  116 1    
   107   54   55 am   BACKBONE|DICT|INTERRES
   108   54  117 1    
   109   55   56 2    
   110   55   57 1    
   111   57   58 1    
   112   57   59 1    
   113   57  118 1    
   114   58  119 1    
   115   58  120 1    
   116   58  121 1    
   117   59   60 am   BACKBONE|DICT|INTERRES
   118   59  122 1    
   119   60   61 2    
   120   60   62 1    
   121   62   63 1    
   122   62   64 1    
   123   62  123 1    
   124   63  124 1    
   125   63  125 1    
   126   63  126 1    
   127   64   65 am   BACKBONE|DICT|INTERRES
   128   64  127 1    
   129   65   66 2    
@<TRIPOS>SUBSTRUCTURE
     1 UNK         1 GROUP             0       ****    0 ROOT    
