@<TRIPOS>MOLECULE
3R134
127   129    1
SMALL
USER_CHARGES


@<TRIPOS>ATOM
      1 CA         35.7051  -46.2325  -54.5152 C.3       0 UNK        -0.1968 
      2 C          35.1065  -46.0973  -53.1232 C.2       0 UNK         0.4852 
      3 O          35.7911  -46.3655  -52.1357 O.2       0 UNK        -0.5359 
      4 N          33.8255  -45.7104  -53.0436 N.am      1 UNK        -0.4300 
      5 CA         33.0293  -45.3905  -51.8438 C.3       1 UNK         0.0863 
      6 C6         33.5844  -44.2140  -50.9952 C.3       11 UNK        -0.0953 
      7 S7         34.1013  -42.7490  -51.9578 S.3       11 UNK        -0.2369 
      8 C8         32.5126  -42.0052  -52.4634 C.3       11 UNK         0.0226 
      9 C9         31.8621  -42.6972  -53.6599 C.ar      11 UNK        -0.0699 
     10 C10        32.6173  -43.0626  -54.7822 C.ar      11 UNK        -0.0804 
     11 C11        32.0192  -43.6925  -55.8783 C.ar      11 UNK        -0.0871 
     12 C12        30.6403  -43.9235  -55.8528 C.ar      11 UNK        -0.1008 
     13 C13        29.8658  -43.5427  -54.7560 C.ar      11 UNK        -0.0735 
     14 C14        30.4840  -42.9379  -53.6579 C.ar      11 UNK        -0.0945 
     15 C15        28.3634  -43.7888  -54.7590 C.3       11 UNK         0.0169 
     16 S16        27.4424  -42.3867  -55.4666 S.3       11 UNK        -0.2669 
     17 C17        27.5899  -42.6876  -57.2658 C.3       11 UNK        -0.0850 
     18 CA         26.2799  -43.2310  -57.8951 C.3       10 UNK         0.0855 
     19 C          26.3575  -43.2757  -59.4510 C.2       10 UNK         0.5543 
     20 N          26.0128  -44.3738  -60.1147 N.am      10 UNK        -0.7343 
     21 O          26.7284  -42.2842  -60.0744 O.2       10 UNK        -0.5027 
     22 N          25.8730  -44.5076  -57.2858 N.am      10 UNK        -0.4495 
     23 C          24.6043  -44.8939  -57.1131 C.2       10 UNK         0.4903 
     24 O          23.6294  -44.1960  -57.3987 O.2       10 UNK        -0.4860 
     25 CA         24.3996  -46.3033  -56.5266 C.3       9 UNK         0.0227 
     26 CB         22.9400  -46.7922  -56.6384 C.3       9 UNK        -0.1964 
     27 N          25.3164  -47.3120  -57.0744 N.am      9 UNK        -0.4231 
     28 C          25.4626  -47.6712  -58.3616 C.2       9 UNK         0.5014 
     29 O          24.9053  -47.0903  -59.2941 O.2       9 UNK        -0.5270 
     30 CA         26.3816  -48.8697  -58.6877 C.3       8 UNK         0.0284 
     31 CB         27.5663  -48.4289  -59.5645 C.3       8 UNK        -0.1977 
     32 N          26.8946  -49.5734  -57.5091 N.am      8 UNK        -0.4342 
     33 C          26.1709  -50.3383  -56.6796 C.2       8 UNK         0.5039 
     34 O          24.9935  -50.6391  -56.8764 O.2       8 UNK        -0.5547 
     35 CA         26.8595  -50.7904  -55.3784 C.3       7 UNK         0.0281 
     36 CB         27.4880  -52.1835  -55.5446 C.3       7 UNK        -0.1963 
     37 N          27.8701  -49.8352  -54.9041 N.am      7 UNK        -0.4444 
     38 C          27.6014  -48.5881  -54.4882 C.2       7 UNK         0.5104 
     39 O          26.4662  -48.1166  -54.4337 O.2       7 UNK        -0.5100 
     40 CA         28.7995  -47.7016  -54.1190 C.3       6 UNK         0.0396 
     41 CB         29.2404  -47.9613  -52.6743 C.3       6 UNK        -0.1801 
     42 N          29.9328  -47.8890  -55.0270 N.am      6 UNK        -0.4747 
     43 C          29.9696  -47.4321  -56.2903 C.2       6 UNK         0.5012 
     44 O          29.0681  -46.7595  -56.7919 O.2       6 UNK        -0.5003 
     45 CA         31.1857  -47.8478  -57.1548 C.3       5 UNK         0.0782 
     46 C46        32.3681  -46.8528  -57.0144 C.3       11 UNK        -0.0868 
     47 S47        32.2240  -45.4194  -58.1292 S.3       11 UNK        -0.2515 
     48 C48        32.8805  -44.0668  -57.0863 C.3       11 UNK         0.0199 
     49 N          31.6303  -49.2142  -56.8643 N.am      5 UNK        -0.4607 
     50 C          30.8737  -50.3163  -56.9378 C.2       4 UNK         0.5031 
     51 O          29.7397  -50.3251  -57.4141 O.2       4 UNK        -0.5119 
     52 CA         31.4425  -51.6116  -56.3215 C.3       4 UNK         0.0263 
     53 CB         31.8405  -52.5977  -57.4309 C.3       4 UNK        -0.1967 
     54 N          32.5805  -51.4292  -55.4057 N.am      4 UNK        -0.4237 
     55 C          32.5994  -50.6663  -54.3013 C.2       3 UNK         0.4908 
     56 O          31.6362  -49.9951  -53.9224 O.2       3 UNK        -0.5102 
     57 CA         33.9420  -50.5932  -53.5521 C.3       3 UNK         0.0241 
     58 CB         35.0704  -50.1093  -54.4837 C.3       3 UNK        -0.1971 
     59 N          33.8704  -49.6740  -52.4165 N.am      3 UNK        -0.4139 
     60 C          33.4794  -49.9828  -51.1734 C.2       2 UNK         0.5016 
     61 O          33.1538  -51.1170  -50.8195 O.2       2 UNK        -0.5319 
     62 CA         33.4707  -48.8379  -50.1414 C.3       2 UNK         0.0286 
     63 CB         34.5927  -49.0377  -49.1086 C.3       2 UNK        -0.1963 
     64 N          33.6489  -47.5286  -50.7793 N.am      2 UNK        -0.4790 
     65 C          32.6954  -46.6074  -50.9509 C.2       1 UNK         0.5024 
     66 O          31.5739  -46.6952  -50.4522 O.2       1 UNK        -0.4888 
     67 H67        36.2943  -47.1463  -54.5871 H         1 UNK         0.0892 
     68 H68        36.3642  -45.3891  -54.7187 H         1 UNK         0.0892 
     69 H69        34.9396  -46.2619  -55.2895 H         1 UNK         0.0892 
     70 H70        33.3337  -45.5249  -53.9055 H         1 UNK         0.3107 
     71 H71        32.0666  -45.0663  -52.2403 H         1 UNK         0.0773 
     72 H72        34.4555  -44.5424  -50.4253 H         1 UNK         0.0680 
     73 H73        32.8455  -43.8970  -50.2569 H         1 UNK         0.0680 
     74 H74        31.8393  -41.9920  -51.6049 H         1 UNK         0.0650 
     75 H75        32.6912  -40.9630  -52.7303 H         1 UNK         0.0650 
     76 H76        33.6787  -42.8550  -54.8005 H         1 UNK         0.1397 
     77 H77        30.1602  -44.3972  -56.6945 H         1 UNK         0.1363 
     78 H78        29.8862  -42.6423  -52.8065 H         1 UNK         0.1355 
     79 H79        28.0157  -43.9598  -53.7391 H         1 UNK         0.0707 
     80 H80        28.1242  -44.6939  -55.3169 H         1 UNK         0.0707 
     81 H81        28.4138  -43.3654  -57.4794 H         1 UNK         0.1034 
     82 H82        27.8653  -41.7360  -57.7244 H         1 UNK         0.1034 
     83 H83        25.5060  -42.4924  -57.6772 H         1 UNK         0.0482 
     84 H84        25.6610  -45.1933  -59.6338 H         1 UNK         0.3460 
     85 H85        26.0671  -44.3729  -61.1206 H         1 UNK         0.3460 
     86 H86        26.6148  -45.1545  -57.0596 H         1 UNK         0.2989 
     87 H87        24.6376  -46.2237  -55.4650 H         1 UNK         0.0559 
     88 H88        22.8166  -47.7768  -56.1872 H         1 UNK         0.0848 
     89 H89        22.6143  -46.8563  -57.6773 H         1 UNK         0.0848 
     90 H90        22.2578  -46.1140  -56.1242 H         1 UNK         0.0848 
     91 H91        25.8429  -47.8235  -56.3741 H         1 UNK         0.3144 
     92 H92        25.7834  -49.5795  -59.2625 H         1 UNK         0.0727 
     93 H93        28.2092  -49.2719  -59.8188 H         1 UNK         0.0790 
     94 H94        28.1795  -47.6769  -59.0691 H         1 UNK         0.0790 
     95 H95        27.2175  -47.9939  -60.5021 H         1 UNK         0.0790 
     96 H96        27.8855  -49.4718  -57.3126 H         1 UNK         0.3215 
     97 H97        26.0876  -50.8580  -54.6086 H         1 UNK         0.0863 
     98 H98        27.9728  -52.5163  -54.6268 H         1 UNK         0.0808 
     99 H99        28.2261  -52.2059  -56.3460 H         1 UNK         0.0808 
    100 H100       26.7247  -52.9223  -55.7926 H         1 UNK         0.0808 
    101 H101       28.8352  -50.1291  -54.9390 H         1 UNK         0.3118 
    102 H102       28.4763  -46.6624  -54.1813 H         1 UNK         0.0546 
    103 H103       28.4219  -47.7833  -51.9757 H         1 UNK         0.0828 
    104 H104       30.0521  -47.2921  -52.3990 H         1 UNK         0.0828 
    105 H105       29.5823  -48.9859  -52.5248 H         1 UNK         0.0828 
    106 H106       30.6815  -48.4913  -54.6939 H         1 UNK         0.3005 
    107 H107       30.8479  -47.8531  -58.1939 H         1 UNK         0.1257 
    108 H108       33.3082  -47.3404  -57.2782 H         1 UNK         0.0775 
    109 H109       32.4874  -46.5248  -55.9805 H         1 UNK         0.0775 
    110 H110       33.8857  -44.3392  -56.7608 H         1 UNK         0.0840 
    111 H111       32.9917  -43.1794  -57.7106 H         1 UNK         0.0840 
    112 H112       32.5526  -49.3096  -56.4688 H         1 UNK         0.2987 
    113 H113       30.6367  -52.0623  -55.7395 H         1 UNK         0.0785 
    114 H114       32.6693  -52.2183  -58.0300 H         1 UNK         0.0798 
    115 H115       31.0057  -52.7814  -58.1092 H         1 UNK         0.0798 
    116 H116       32.1358  -53.5630  -57.0189 H         1 UNK         0.0798 
    117 H117       33.4199  -51.9381  -55.6441 H         1 UNK         0.3079 
    118 H118       34.1851  -51.5948  -53.1907 H         1 UNK         0.0794 
    119 H119       34.8229  -49.1608  -54.9616 H         1 UNK         0.0786 
    120 H120       35.2757  -50.8303  -55.2756 H         1 UNK         0.0786 
    121 H121       36.0036  -49.9723  -53.9363 H         1 UNK         0.0786 
    122 H122       34.0567  -48.7037  -52.6126 H         1 UNK         0.3032 
    123 H123       32.5108  -48.8823  -49.6219 H         1 UNK         0.1094 
    124 H124       35.5787  -49.0207  -49.5750 H         1 UNK         0.0794 
    125 H125       34.5697  -48.2599  -48.3451 H         1 UNK         0.0794 
    126 H126       34.4889  -49.9956  -48.5971 H         1 UNK         0.0794 
    127 H127       34.5672  -47.3140  -51.1670 H         1 UNK         0.3016 
@<TRIPOS>BOND
     1    1    2 1    
     2    1   67 1    
     3    1   68 1    
     4    1   69 1    
     5    2    3 2    
     6    2    4 am   BACKBONE|DICT|INTERRES
     7    4    5 1    
     8    4   70 1    
     9    5    6 1    
    10    5   65 1    
    11    5   71 1    
    12    6    7 1    
    13    6   72 1    
    14    6   73 1    
    15    7    8 1    
    16    8    9 1    
    17    8   74 1    
    18    8   75 1    
    19    9   10 ar   
    20    9   14 ar   
    21   10   11 ar   
    22   10   76 1    
    23   11   12 ar   
    24   11   48 1    
    25   12   13 ar   
    26   12   77 1    
    27   13   14 ar   
    28   13   15 1    
    29   14   78 1    
    30   15   16 1    
    31   15   79 1    
    32   15   80 1    
    33   16   17 1    
    34   17   18 1    
    35   17   81 1    
    36   17   82 1    
    37   18   19 1    
    38   18   22 1    
    39   18   83 1    
    40   19   20 am   BACKBONE|DICT|INTERRES
    41   19   21 2    
    42   20   84 1    
    43   20   85 1    
    44   22   23 am   BACKBONE|DICT|INTERRES
    45   22   86 1    
    46   23   24 2    
    47   23   25 1    
    48   25   26 1    
    49   25   27 1    
    50   25   87 1    
    51   26   88 1    
    52   26   89 1    
    53   26   90 1    
    54   27   28 am   BACKBONE|DICT|INTERRES
    55   27   91 1    
    56   28   29 2    
    57   28   30 1    
    58   30   31 1    
    59   30   32 1    
    60   30   92 1    
    61   31   93 1    
    62   31   94 1    
    63   31   95 1    
    64   32   33 am   BACKBONE|DICT|INTERRES
    65   32   96 1    
    66   33   34 2    
    67   33   35 1    
    68   35   36 1    
    69   35   37 1    
    70   35   97 1    
    71   36   98 1    
    72   36   99 1    
    73   36  100 1    
    74   37   38 am   BACKBONE|DICT|INTERRES
    75   37  101 1    
    76   38   39 2    
    77   38   40 1    
    78   40   41 1    
    79   40   42 1    
    80   40  102 1    
    81   41  103 1    
    82   41  104 1    
    83   41  105 1    
    84   42   43 am   BACKBONE|DICT|INTERRES
    85   42  106 1    
    86   43   44 2    
    87   43   45 1    
    88   45   46 1    
    89   45   49 1    
    90   45  107 1    
    91   46   47 1    
    92   46  108 1    
    93   46  109 1    
    94   47   48 1    
    95   48  110 1    
    96   48  111 1    
    97   49   50 am   BACKBONE|DICT|INTERRES
    98   49  112 1    
    99   50   51 2    
   100   50   52 1    
   101   52   53 1    
   102   52   54 1    
   103   52  113 1    
   104   53  114 1    
   105   53  115 1    
   106   53  116 1    
   107   54   55 am   BACKBONE|DICT|INTERRES
   108   54  117 1    
   109   55   56 2    
   110   55   57 1    
   111   57   58 1    
   112   57   59 1    
   113   57  118 1    
   114   58  119 1    
   115   58  120 1    
   116   58  121 1    
   117   59   60 am   BACKBONE|DICT|INTERRES
   118   59  122 1    
   119   60   61 2    
   120   60   62 1    
   121   62   63 1    
   122   62   64 1    
   123   62  123 1    
   124   63  124 1    
   125   63  125 1    
   126   63  126 1    
   127   64   65 am   BACKBONE|DICT|INTERRES
   128   64  127 1    
   129   65   66 2    
@<TRIPOS>SUBSTRUCTURE
     1 UNK         1 GROUP             0       ****    0 ROOT    
