@<TRIPOS>MOLECULE
3R134
127   129    1
SMALL
USER_CHARGES


@<TRIPOS>ATOM
      1 CA         36.1347  -42.4209  -51.5117 C.3       0 UNK        -0.1968 
      2 C          36.1260  -43.3523  -52.7153 C.2       0 UNK         0.4852 
      3 O          37.1652  -43.5404  -53.3504 O.2       0 UNK        -0.5359 
      4 N          34.9612  -43.9297  -53.0353 N.am      1 UNK        -0.4300 
      5 CA         34.7790  -44.8976  -54.1195 C.3       1 UNK         0.0863 
      6 C6         33.2900  -45.0486  -54.5182 C.3       11 UNK        -0.0953 
      7 S7         32.6283  -43.5648  -55.3482 S.3       11 UNK        -0.2369 
      8 C8         31.8011  -42.6620  -53.9996 C.3       11 UNK         0.0226 
      9 C9         30.5237  -43.3325  -53.5067 C.ar      11 UNK        -0.0699 
     10 C10        30.5370  -44.0880  -52.3298 C.ar      11 UNK        -0.0804 
     11 C11        29.3545  -44.6255  -51.8135 C.ar      11 UNK        -0.0871 
     12 C12        28.1498  -44.4080  -52.4887 C.ar      11 UNK        -0.1008 
     13 C13        28.1209  -43.6592  -53.6697 C.ar      11 UNK        -0.0735 
     14 C14        29.3128  -43.1321  -54.1799 C.ar      11 UNK        -0.0945 
     15 C15        26.7883  -43.3639  -54.3446 C.3       11 UNK         0.0169 
     16 S16        26.3552  -44.6139  -55.5923 S.3       11 UNK        -0.2669 
     17 C17        26.7932  -43.7458  -57.1402 C.3       11 UNK        -0.0850 
     18 CA         27.0556  -44.7210  -58.3286 C.3       10 UNK         0.0855 
     19 C          27.3143  -44.0019  -59.6883 C.2       10 UNK         0.5543 
     20 N          26.5980  -42.9243  -59.9826 N.am      10 UNK        -0.7343 
     21 O          28.1197  -44.4327  -60.5116 O.2       10 UNK        -0.5027 
     22 N          28.0635  -45.7380  -57.9972 N.am      10 UNK        -0.4495 
     23 C          29.3428  -45.5028  -57.6751 C.2       10 UNK         0.4903 
     24 O          29.8740  -44.3928  -57.7252 O.2       10 UNK        -0.4860 
     25 CA         30.1635  -46.6924  -57.1470 C.3       9 UNK         0.0227 
     26 CB         30.2136  -46.6147  -55.6147 C.3       9 UNK        -0.1964 
     27 N          29.6294  -48.0008  -57.5384 N.am      9 UNK        -0.4231 
     28 C          29.6866  -48.5004  -58.7808 C.2       9 UNK         0.5014 
     29 O          30.2863  -47.9546  -59.7078 O.2       9 UNK        -0.5270 
     30 CA         28.9455  -49.8243  -59.0547 C.3       8 UNK         0.0284 
     31 CB         29.9084  -51.0179  -58.9466 C.3       8 UNK        -0.1977 
     32 N          27.7744  -50.0788  -58.2079 N.am      8 UNK        -0.4342 
     33 C          26.6981  -49.2904  -58.0883 C.2       8 UNK         0.5039 
     34 O          26.5914  -48.1920  -58.6347 O.2       8 UNK        -0.5547 
     35 CA         25.5514  -49.7855  -57.1975 C.3       7 UNK         0.0281 
     36 CB         25.7136  -51.2255  -56.6640 C.3       7 UNK        -0.1963 
     37 N          25.4303  -48.8567  -56.0830 N.am      7 UNK        -0.4444 
     38 C          24.3018  -48.5408  -55.4389 C.2       7 UNK         0.5104 
     39 O          23.1968  -49.0002  -55.7332 O.2       7 UNK        -0.5100 
     40 CA         24.4304  -47.5342  -54.2744 C.3       6 UNK         0.0396 
     41 CB         23.3715  -47.7564  -53.1735 C.3       6 UNK        -0.1801 
     42 N          25.7860  -47.4652  -53.7052 N.am      6 UNK        -0.4747 
     43 C          26.4466  -48.4538  -53.0819 C.2       6 UNK         0.5012 
     44 O          25.9606  -49.5577  -52.8246 O.2       6 UNK        -0.5003 
     45 CA         27.9019  -48.1554  -52.6756 C.3       5 UNK         0.0782 
     46 C46        27.9704  -47.7349  -51.1895 C.3       11 UNK        -0.0868 
     47 S47        29.6381  -47.1670  -50.7158 S.3       11 UNK        -0.2515 
     48 C48        29.3770  -45.3797  -50.4906 C.3       11 UNK         0.0199 
     49 N          28.7691  -49.3042  -52.9543 N.am      5 UNK        -0.4607 
     50 C          29.0306  -49.8131  -54.1638 C.2       4 UNK         0.5031 
     51 O          28.5983  -49.3498  -55.2232 O.2       4 UNK        -0.5119 
     52 CA         29.9186  -51.0687  -54.1920 C.3       4 UNK         0.0263 
     53 CB         29.1499  -52.2640  -54.7783 C.3       4 UNK        -0.1967 
     54 N          31.1494  -50.8647  -54.9585 N.am      4 UNK        -0.4237 
     55 C          32.1319  -50.0189  -54.6227 C.2       3 UNK         0.4908 
     56 O          32.1178  -49.3069  -53.6150 O.2       3 UNK        -0.5102 
     57 CA         33.3378  -49.9678  -55.5700 C.3       3 UNK         0.0241 
     58 CB         32.9754  -49.3072  -56.9138 C.3       3 UNK        -0.1971 
     59 N          34.4061  -49.2107  -54.9261 N.am      3 UNK        -0.4139 
     60 C          35.7045  -49.2516  -55.2413 C.2       2 UNK         0.5016 
     61 O          36.1732  -49.9864  -56.1131 O.2       2 UNK        -0.5319 
     62 CA         36.6132  -48.2665  -54.4846 C.3       2 UNK         0.0286 
     63 CB         38.0694  -48.2909  -54.9877 C.3       2 UNK        -0.1963 
     64 N          36.0838  -46.9077  -54.6288 N.am      2 UNK        -0.4790 
     65 C          35.3589  -46.2637  -53.7067 C.2       1 UNK         0.5024 
     66 O          35.1009  -46.7261  -52.5930 O.2       1 UNK        -0.4888 
     67 H67        36.8094  -42.8041  -50.7458 H         1 UNK         0.0892 
     68 H68        36.4807  -41.4298  -51.8064 H         1 UNK         0.0892 
     69 H69        35.1436  -42.3156  -51.0695 H         1 UNK         0.0892 
     70 H70        34.1551  -43.7743  -52.4498 H         1 UNK         0.3107 
     71 H71        35.3318  -44.5390  -54.9911 H         1 UNK         0.0773 
     72 H72        33.1721  -45.8721  -55.2258 H         1 UNK         0.0680 
     73 H73        32.6746  -45.3100  -53.6568 H         1 UNK         0.0680 
     74 H74        31.5588  -41.6615  -54.3609 H         1 UNK         0.0650 
     75 H75        32.4999  -42.5156  -53.1759 H         1 UNK         0.0650 
     76 H76        31.4652  -44.2335  -51.7949 H         1 UNK         0.1397 
     77 H77        27.2272  -44.7947  -52.0789 H         1 UNK         0.1363 
     78 H78        29.2958  -42.5397  -55.0844 H         1 UNK         0.1355 
     79 H79        25.9956  -43.3386  -53.5951 H         1 UNK         0.0707 
     80 H80        26.8017  -42.3689  -54.7921 H         1 UNK         0.0707 
     81 H81        25.9703  -43.0673  -57.3675 H         1 UNK         0.1034 
     82 H82        27.6672  -43.1155  -56.9688 H         1 UNK         0.1034 
     83 H83        26.1391  -45.2894  -58.4905 H         1 UNK         0.0482 
     84 H84        25.9015  -42.5647  -59.3503 H         1 UNK         0.3460 
     85 H85        26.7489  -42.4684  -60.8690 H         1 UNK         0.3460 
     86 H86        27.7253  -46.6946  -58.0234 H         1 UNK         0.2989 
     87 H87        31.1784  -46.5951  -57.5365 H         1 UNK         0.0559 
     88 H88        29.2149  -46.6926  -55.1898 H         1 UNK         0.0848 
     89 H89        30.8342  -47.3980  -55.1836 H         1 UNK         0.0848 
     90 H90        30.6156  -45.6593  -55.2833 H         1 UNK         0.0848 
     91 H91        29.1460  -48.5309  -56.8154 H         1 UNK         0.3144 
     92 H92        28.5864  -49.7732  -60.0847 H         1 UNK         0.0727 
     93 H93        29.4434  -51.9357  -59.3069 H         1 UNK         0.0790 
     94 H94        30.2272  -51.1858  -57.9183 H         1 UNK         0.0790 
     95 H95        30.8051  -50.8558  -59.5469 H         1 UNK         0.0790 
     96 H96        27.7775  -50.9431  -57.6874 H         1 UNK         0.3215 
     97 H97        24.6465  -49.7412  -57.8075 H         1 UNK         0.0863 
     98 H98        24.8251  -51.5359  -56.1138 H         1 UNK         0.0808 
     99 H99        26.5604  -51.3139  -55.9834 H         1 UNK         0.0808 
    100 H100       25.8474  -51.9420  -57.4756 H         1 UNK         0.0808 
    101 H101       26.2926  -48.4209  -55.7849 H         1 UNK         0.3118 
    102 H102       24.2370  -46.5537  -54.7107 H         1 UNK         0.0546 
    103 H103       22.3633  -47.6394  -53.5727 H         1 UNK         0.0828 
    104 H104       23.4823  -47.0353  -52.3640 H         1 UNK         0.0828 
    105 H105       23.4330  -48.7568  -52.7445 H         1 UNK         0.0828 
    106 H106       26.2682  -46.5928  -53.8814 H         1 UNK         0.3005 
    107 H107       28.2619  -47.3220  -53.2790 H         1 UNK         0.1257 
    108 H108       27.6991  -48.5717  -50.5428 H         1 UNK         0.0775 
    109 H109       27.2461  -46.9478  -50.9732 H         1 UNK         0.0775 
    110 H110       28.4575  -45.2017  -49.9309 H         1 UNK         0.0840 
    111 H111       30.1814  -44.9924  -49.8633 H         1 UNK         0.0840 
    112 H112       29.1800  -49.7426  -52.1438 H         1 UNK         0.2987 
    113 H113       30.2037  -51.3218  -53.1685 H         1 UNK         0.0785 
    114 H114       28.2140  -52.4274  -54.2418 H         1 UNK         0.0798 
    115 H115       29.7296  -53.1841  -54.7023 H         1 UNK         0.0798 
    116 H116       28.9021  -52.1104  -55.8287 H         1 UNK         0.0798 
    117 H117       31.2450  -51.4068  -55.8039 H         1 UNK         0.3079 
    118 H118       33.6779  -50.9914  -55.7411 H         1 UNK         0.0794 
    119 H119       32.1526  -49.8233  -57.4057 H         1 UNK         0.0786 
    120 H120       33.8180  -49.3229  -57.6052 H         1 UNK         0.0786 
    121 H121       32.6788  -48.2677  -56.7782 H         1 UNK         0.0786 
    122 H122       34.0932  -48.6321  -54.1545 H         1 UNK         0.3032 
    123 H123       36.6169  -48.5709  -53.4352 H         1 UNK         0.1094 
    124 H124       38.6935  -47.5965  -54.4247 H         1 UNK         0.0794 
    125 H125       38.5064  -49.2838  -54.8722 H         1 UNK         0.0794 
    126 H126       38.1389  -48.0237  -56.0430 H         1 UNK         0.0794 
    127 H127       36.2193  -46.4737  -55.5319 H         1 UNK         0.3016 
@<TRIPOS>BOND
     1    1    2 1    
     2    1   67 1    
     3    1   68 1    
     4    1   69 1    
     5    2    3 2    
     6    2    4 am   BACKBONE|DICT|INTERRES
     7    4    5 1    
     8    4   70 1    
     9    5    6 1    
    10    5   65 1    
    11    5   71 1    
    12    6    7 1    
    13    6   72 1    
    14    6   73 1    
    15    7    8 1    
    16    8    9 1    
    17    8   74 1    
    18    8   75 1    
    19    9   10 ar   
    20    9   14 ar   
    21   10   11 ar   
    22   10   76 1    
    23   11   12 ar   
    24   11   48 1    
    25   12   13 ar   
    26   12   77 1    
    27   13   14 ar   
    28   13   15 1    
    29   14   78 1    
    30   15   16 1    
    31   15   79 1    
    32   15   80 1    
    33   16   17 1    
    34   17   18 1    
    35   17   81 1    
    36   17   82 1    
    37   18   19 1    
    38   18   22 1    
    39   18   83 1    
    40   19   20 am   BACKBONE|DICT|INTERRES
    41   19   21 2    
    42   20   84 1    
    43   20   85 1    
    44   22   23 am   BACKBONE|DICT|INTERRES
    45   22   86 1    
    46   23   24 2    
    47   23   25 1    
    48   25   26 1    
    49   25   27 1    
    50   25   87 1    
    51   26   88 1    
    52   26   89 1    
    53   26   90 1    
    54   27   28 am   BACKBONE|DICT|INTERRES
    55   27   91 1    
    56   28   29 2    
    57   28   30 1    
    58   30   31 1    
    59   30   32 1    
    60   30   92 1    
    61   31   93 1    
    62   31   94 1    
    63   31   95 1    
    64   32   33 am   BACKBONE|DICT|INTERRES
    65   32   96 1    
    66   33   34 2    
    67   33   35 1    
    68   35   36 1    
    69   35   37 1    
    70   35   97 1    
    71   36   98 1    
    72   36   99 1    
    73   36  100 1    
    74   37   38 am   BACKBONE|DICT|INTERRES
    75   37  101 1    
    76   38   39 2    
    77   38   40 1    
    78   40   41 1    
    79   40   42 1    
    80   40  102 1    
    81   41  103 1    
    82   41  104 1    
    83   41  105 1    
    84   42   43 am   BACKBONE|DICT|INTERRES
    85   42  106 1    
    86   43   44 2    
    87   43   45 1    
    88   45   46 1    
    89   45   49 1    
    90   45  107 1    
    91   46   47 1    
    92   46  108 1    
    93   46  109 1    
    94   47   48 1    
    95   48  110 1    
    96   48  111 1    
    97   49   50 am   BACKBONE|DICT|INTERRES
    98   49  112 1    
    99   50   51 2    
   100   50   52 1    
   101   52   53 1    
   102   52   54 1    
   103   52  113 1    
   104   53  114 1    
   105   53  115 1    
   106   53  116 1    
   107   54   55 am   BACKBONE|DICT|INTERRES
   108   54  117 1    
   109   55   56 2    
   110   55   57 1    
   111   57   58 1    
   112   57   59 1    
   113   57  118 1    
   114   58  119 1    
   115   58  120 1    
   116   58  121 1    
   117   59   60 am   BACKBONE|DICT|INTERRES
   118   59  122 1    
   119   60   61 2    
   120   60   62 1    
   121   62   63 1    
   122   62   64 1    
   123   62  123 1    
   124   63  124 1    
   125   63  125 1    
   126   63  126 1    
   127   64   65 am   BACKBONE|DICT|INTERRES
   128   64  127 1    
   129   65   66 2    
@<TRIPOS>SUBSTRUCTURE
     1 UNK         1 GROUP             0       ****    0 ROOT    
