@<TRIPOS>MOLECULE
3R134
127   129    1
SMALL
USER_CHARGES


@<TRIPOS>ATOM
      1 CA         29.3146  -45.1630  -52.5191 C.3       0 UNK        -0.1968 
      2 C          30.5470  -45.3710  -51.6557 C.2       0 UNK         0.4852 
      3 O          30.4323  -45.8860  -50.5425 O.2       0 UNK        -0.5359 
      4 N          31.7309  -45.0028  -52.1627 N.am      1 UNK        -0.4300 
      5 CA         33.0269  -45.1140  -51.4757 C.3       1 UNK         0.0863 
      6 C6         34.0623  -44.0895  -52.0137 C.3       11 UNK        -0.0953 
      7 S7         33.5053  -42.3585  -51.8565 S.3       11 UNK        -0.2369 
      8 C8         33.4654  -41.8126  -53.5941 C.3       11 UNK         0.0226 
      9 C9         32.3503  -42.4897  -54.3764 C.ar      11 UNK        -0.0699 
     10 C10        32.6408  -43.5142  -55.2838 C.ar      11 UNK        -0.0804 
     11 C11        31.6124  -44.1487  -55.9858 C.ar      11 UNK        -0.0871 
     12 C12        30.2905  -43.7475  -55.7784 C.ar      11 UNK        -0.1008 
     13 C13        29.9884  -42.7124  -54.8901 C.ar      11 UNK        -0.0735 
     14 C14        31.0240  -42.0868  -54.1913 C.ar      11 UNK        -0.0945 
     15 C15        28.5424  -42.3055  -54.6450 C.3       11 UNK         0.0169 
     16 S16        28.0275  -40.8606  -55.6278 S.3       11 UNK        -0.2669 
     17 C17        27.9081  -41.5012  -57.3363 C.3       11 UNK        -0.0850 
     18 CA         26.4830  -42.0329  -57.6846 C.3       10 UNK         0.0855 
     19 C          26.1886  -42.0501  -59.2186 C.2       10 UNK         0.5543 
     20 N          25.4133  -42.9971  -59.7333 N.am      10 UNK        -0.7343 
     21 O          26.6330  -41.1692  -59.9507 O.2       10 UNK        -0.5027 
     22 N          26.1679  -43.2870  -56.9732 N.am      10 UNK        -0.4495 
     23 C          26.7606  -44.4724  -57.1746 C.2       10 UNK         0.4903 
     24 O          27.6207  -44.6699  -58.0346 O.2       10 UNK        -0.4860 
     25 CA         26.3852  -45.6234  -56.2228 C.3       9 UNK         0.0227 
     26 CB         25.0890  -45.4008  -55.4111 C.3       9 UNK        -0.1964 
     27 N          26.3652  -46.9076  -56.9248 N.am      9 UNK        -0.4231 
     28 C          25.5265  -47.3003  -57.8955 C.2       9 UNK         0.5014 
     29 O          24.5841  -46.6259  -58.3138 O.2       9 UNK        -0.5270 
     30 CA         25.7818  -48.6907  -58.5021 C.3       8 UNK         0.0284 
     31 CB         26.7367  -48.5847  -59.7028 C.3       8 UNK        -0.1977 
     32 N          26.3464  -49.6128  -57.5130 N.am      8 UNK        -0.4342 
     33 C          25.6239  -50.4054  -56.7088 C.2       8 UNK         0.5039 
     34 O          24.4011  -50.5303  -56.7876 O.2       8 UNK        -0.5547 
     35 CA         26.3889  -51.1856  -55.6222 C.3       7 UNK         0.0281 
     36 CB         26.8374  -52.5549  -56.1570 C.3       7 UNK        -0.1963 
     37 N          27.5505  -50.4539  -55.1074 N.am      7 UNK        -0.4444 
     38 C          27.4662  -49.3437  -54.3565 C.2       7 UNK         0.5104 
     39 O          26.4037  -48.8916  -53.9307 O.2       7 UNK        -0.5100 
     40 CA         28.7695  -48.5800  -54.0454 C.3       6 UNK         0.0396 
     41 CB         29.2381  -48.8865  -52.6153 C.3       6 UNK        -0.1801 
     42 N          29.8765  -48.8345  -54.9712 N.am      6 UNK        -0.4747 
     43 C          29.8496  -48.6698  -56.3031 C.2       6 UNK         0.5012 
     44 O          28.8733  -48.2370  -56.9152 O.2       6 UNK        -0.5003 
     45 CA         31.0859  -49.1511  -57.0917 C.3       5 UNK         0.0782 
     46 C46        32.0614  -48.0099  -57.4943 C.3       11 UNK        -0.0868 
     47 S47        32.4593  -46.7888  -56.1866 S.3       11 UNK        -0.2515 
     48 C48        31.9200  -45.2471  -56.9920 C.3       11 UNK         0.0199 
     49 N          31.7812  -50.2584  -56.4285 N.am      5 UNK        -0.4607 
     50 C          31.2660  -51.4673  -56.1627 C.2       4 UNK         0.5031 
     51 O          30.1081  -51.7771  -56.4440 O.2       4 UNK        -0.5119 
     52 CA         32.1501  -52.4985  -55.4286 C.3       4 UNK         0.0263 
     53 CB         32.6732  -53.5723  -56.4029 C.3       4 UNK        -0.1967 
     54 N          33.2368  -51.9198  -54.6215 N.am      4 UNK        -0.4237 
     55 C          34.3141  -51.2350  -55.0338 C.2       3 UNK         0.4908 
     56 O          34.6130  -51.0880  -56.2196 O.2       3 UNK        -0.5102 
     57 CA         35.1646  -50.5442  -53.9476 C.3       3 UNK         0.0241 
     58 CB         35.8823  -49.2920  -54.4958 C.3       3 UNK        -0.1971 
     59 N          34.4475  -50.1868  -52.7124 N.am      3 UNK        -0.4139 
     60 C          33.3288  -49.4530  -52.5862 C.2       2 UNK         0.5016 
     61 O          32.5943  -49.1372  -53.5247 O.2       2 UNK        -0.5319 
     62 CA         32.9511  -48.9850  -51.1651 C.3       2 UNK         0.0286 
     63 CB         33.9513  -49.4014  -50.0618 C.3       2 UNK        -0.1963 
     64 N          32.7270  -47.5345  -51.1277 N.am      2 UNK        -0.4790 
     65 C          33.5731  -46.5631  -51.5062 C.2       1 UNK         0.5024 
     66 O          34.7323  -46.7744  -51.8692 O.2       1 UNK        -0.4888 
     67 H67        28.5293  -45.8650  -52.2400 H         1 UNK         0.0892 
     68 H68        28.9292  -44.1542  -52.3814 H         1 UNK         0.0892 
     69 H69        29.5429  -45.3159  -53.5728 H         1 UNK         0.0892 
     70 H70        31.7688  -44.5930  -53.0868 H         1 UNK         0.3107 
     71 H71        32.8671  -44.8783  -50.4213 H         1 UNK         0.0773 
     72 H72        34.9976  -44.1702  -51.4567 H         1 UNK         0.0680 
     73 H73        34.3136  -44.3076  -53.0526 H         1 UNK         0.0680 
     74 H74        34.4363  -41.9981  -54.0561 H         1 UNK         0.0650 
     75 H75        33.3175  -40.7321  -53.6190 H         1 UNK         0.0650 
     76 H76        33.6649  -43.8242  -55.4424 H         1 UNK         0.1397 
     77 H77        29.4953  -44.2444  -56.3128 H         1 UNK         0.1363 
     78 H78        30.7974  -41.2939  -53.4914 H         1 UNK         0.1355 
     79 H79        27.8711  -43.1434  -54.8264 H         1 UNK         0.0707 
     80 H80        28.4169  -42.0541  -53.5910 H         1 UNK         0.0707 
     81 H81        28.6726  -42.2555  -57.5200 H         1 UNK         0.1034 
     82 H82        28.1739  -40.6633  -57.9827 H         1 UNK         0.1034 
     83 H83        25.7682  -41.3040  -57.3012 H         1 UNK         0.0482 
     84 H84        25.0500  -43.7326  -59.1475 H         1 UNK         0.3460 
     85 H85        25.2164  -42.9928  -60.7215 H         1 UNK         0.3460 
     86 H86        25.4552  -43.2167  -56.2620 H         1 UNK         0.2989 
     87 H87        27.2060  -45.6962  -55.5079 H         1 UNK         0.0559 
     88 H88        25.1838  -44.5517  -54.7334 H         1 UNK         0.0848 
     89 H89        24.8638  -46.2708  -54.7938 H         1 UNK         0.0848 
     90 H90        24.2263  -45.2212  -56.0535 H         1 UNK         0.0848 
     91 H91        27.1866  -47.4868  -56.7709 H         1 UNK         0.3144 
     92 H92        24.8272  -49.0799  -58.8630 H         1 UNK         0.0727 
     93 H93        26.9001  -49.5576  -60.1667 H         1 UNK         0.0790 
     94 H94        27.7086  -48.1814  -59.4155 H         1 UNK         0.0790 
     95 H95        26.3255  -47.9253  -60.4684 H         1 UNK         0.0790 
     96 H96        27.3434  -49.5357  -57.3478 H         1 UNK         0.3215 
     97 H97        25.7009  -51.3547  -54.7908 H         1 UNK         0.0863 
     98 H98        27.3472  -53.1353  -55.3878 H         1 UNK         0.0808 
     99 H99        27.5150  -52.4556  -57.0059 H         1 UNK         0.0808 
    100 H100       25.9807  -53.1414  -56.4917 H         1 UNK         0.0808 
    101 H101       28.4636  -50.7704  -55.4148 H         1 UNK         0.3118 
    102 H102       28.5365  -47.5169  -54.1139 H         1 UNK         0.0546 
    103 H103       28.4574  -48.6596  -51.8880 H         1 UNK         0.0828 
    104 H104       30.1094  -48.2896  -52.3501 H         1 UNK         0.0828 
    105 H105       29.5040  -49.9374  -52.4955 H         1 UNK         0.0828 
    106 H106       30.7544  -49.1384  -54.5591 H         1 UNK         0.3005 
    107 H107       30.6925  -49.5713  -58.0203 H         1 UNK         0.1257 
    108 H108       33.0002  -48.4318  -57.8564 H         1 UNK         0.0775 
    109 H109       31.6446  -47.4865  -58.3555 H         1 UNK         0.0775 
    110 H110       32.6964  -44.9103  -57.6798 H         1 UNK         0.0840 
    111 H111       31.0354  -45.4409  -57.6002 H         1 UNK         0.0840 
    112 H112       32.7424  -50.0879  -56.1618 H         1 UNK         0.2987 
    113 H113       31.4945  -52.9995  -54.7148 H         1 UNK         0.0785 
    114 H114       33.2559  -54.3314  -55.8815 H         1 UNK         0.0798 
    115 H115       33.3002  -53.1456  -57.1859 H         1 UNK         0.0798 
    116 H116       31.8453  -54.0821  -56.8974 H         1 UNK         0.0798 
    117 H117       33.0802  -51.9445  -53.6237 H         1 UNK         0.3079 
    118 H118       35.9290  -51.2677  -53.6615 H         1 UNK         0.0794 
    119 H119       36.5377  -49.5415  -55.3310 H         1 UNK         0.0786 
    120 H120       36.5009  -48.8222  -53.7310 H         1 UNK         0.0786 
    121 H121       35.1690  -48.5459  -54.8494 H         1 UNK         0.0786 
    122 H122       34.9376  -50.4120  -51.8579 H         1 UNK         0.3032 
    123 H123       31.9927  -49.4549  -50.9389 H         1 UNK         0.1094 
    124 H124       34.9461  -48.9855  -50.2271 H         1 UNK         0.0794 
    125 H125       33.6141  -49.0577  -49.0837 H         1 UNK         0.0794 
    126 H126       34.0452  -50.4861  -49.9967 H         1 UNK         0.0794 
    127 H127       31.7968  -47.2317  -50.8506 H         1 UNK         0.3016 
@<TRIPOS>BOND
     1    1    2 1    
     2    1   67 1    
     3    1   68 1    
     4    1   69 1    
     5    2    3 2    
     6    2    4 am   BACKBONE|DICT|INTERRES
     7    4    5 1    
     8    4   70 1    
     9    5    6 1    
    10    5   65 1    
    11    5   71 1    
    12    6    7 1    
    13    6   72 1    
    14    6   73 1    
    15    7    8 1    
    16    8    9 1    
    17    8   74 1    
    18    8   75 1    
    19    9   10 ar   
    20    9   14 ar   
    21   10   11 ar   
    22   10   76 1    
    23   11   12 ar   
    24   11   48 1    
    25   12   13 ar   
    26   12   77 1    
    27   13   14 ar   
    28   13   15 1    
    29   14   78 1    
    30   15   16 1    
    31   15   79 1    
    32   15   80 1    
    33   16   17 1    
    34   17   18 1    
    35   17   81 1    
    36   17   82 1    
    37   18   19 1    
    38   18   22 1    
    39   18   83 1    
    40   19   20 am   BACKBONE|DICT|INTERRES
    41   19   21 2    
    42   20   84 1    
    43   20   85 1    
    44   22   23 am   BACKBONE|DICT|INTERRES
    45   22   86 1    
    46   23   24 2    
    47   23   25 1    
    48   25   26 1    
    49   25   27 1    
    50   25   87 1    
    51   26   88 1    
    52   26   89 1    
    53   26   90 1    
    54   27   28 am   BACKBONE|DICT|INTERRES
    55   27   91 1    
    56   28   29 2    
    57   28   30 1    
    58   30   31 1    
    59   30   32 1    
    60   30   92 1    
    61   31   93 1    
    62   31   94 1    
    63   31   95 1    
    64   32   33 am   BACKBONE|DICT|INTERRES
    65   32   96 1    
    66   33   34 2    
    67   33   35 1    
    68   35   36 1    
    69   35   37 1    
    70   35   97 1    
    71   36   98 1    
    72   36   99 1    
    73   36  100 1    
    74   37   38 am   BACKBONE|DICT|INTERRES
    75   37  101 1    
    76   38   39 2    
    77   38   40 1    
    78   40   41 1    
    79   40   42 1    
    80   40  102 1    
    81   41  103 1    
    82   41  104 1    
    83   41  105 1    
    84   42   43 am   BACKBONE|DICT|INTERRES
    85   42  106 1    
    86   43   44 2    
    87   43   45 1    
    88   45   46 1    
    89   45   49 1    
    90   45  107 1    
    91   46   47 1    
    92   46  108 1    
    93   46  109 1    
    94   47   48 1    
    95   48  110 1    
    96   48  111 1    
    97   49   50 am   BACKBONE|DICT|INTERRES
    98   49  112 1    
    99   50   51 2    
   100   50   52 1    
   101   52   53 1    
   102   52   54 1    
   103   52  113 1    
   104   53  114 1    
   105   53  115 1    
   106   53  116 1    
   107   54   55 am   BACKBONE|DICT|INTERRES
   108   54  117 1    
   109   55   56 2    
   110   55   57 1    
   111   57   58 1    
   112   57   59 1    
   113   57  118 1    
   114   58  119 1    
   115   58  120 1    
   116   58  121 1    
   117   59   60 am   BACKBONE|DICT|INTERRES
   118   59  122 1    
   119   60   61 2    
   120   60   62 1    
   121   62   63 1    
   122   62   64 1    
   123   62  123 1    
   124   63  124 1    
   125   63  125 1    
   126   63  126 1    
   127   64   65 am   BACKBONE|DICT|INTERRES
   128   64  127 1    
   129   65   66 2    
@<TRIPOS>SUBSTRUCTURE
     1 UNK         1 GROUP             0       ****    0 ROOT    
