@<TRIPOS>MOLECULE
3R134
127   129    1
SMALL
USER_CHARGES


@<TRIPOS>ATOM
      1 CA         36.9173  -47.4055  -51.1828 C.3       0 UNK        -0.1968 
      2 C          35.5008  -47.1356  -51.6668 C.2       0 UNK         0.4852 
      3 O          34.9078  -47.9871  -52.3318 O.2       0 UNK        -0.5359 
      4 N          34.9414  -45.9673  -51.3231 N.am      1 UNK        -0.4300 
      5 CA         33.6092  -45.4859  -51.7217 C.3       1 UNK         0.0863 
      6 C6         33.5095  -43.9410  -51.6273 C.3       11 UNK        -0.0953 
      7 S7         34.7360  -43.1081  -52.6919 S.3       11 UNK        -0.2369 
      8 C8         33.7218  -41.8643  -53.5522 C.3       11 UNK         0.0226 
      9 C9         32.7680  -42.4776  -54.5695 C.ar      11 UNK        -0.0699 
     10 C10        33.2637  -43.0403  -55.7484 C.ar      11 UNK        -0.0804 
     11 C11        32.3921  -43.5593  -56.7104 C.ar      11 UNK        -0.0871 
     12 C12        31.0133  -43.5196  -56.4811 C.ar      11 UNK        -0.1008 
     13 C13        30.4977  -42.9470  -55.3085 C.ar      11 UNK        -0.0735 
     14 C14        31.3871  -42.4382  -54.3563 C.ar      11 UNK        -0.0945 
     15 C15        28.9977  -42.8718  -55.0153 C.3       11 UNK         0.0169 
     16 S16        27.9207  -42.9380  -56.4880 S.3       11 UNK        -0.2669 
     17 C17        26.2943  -43.2354  -55.7122 C.3       11 UNK        -0.0850 
     18 CA         25.9700  -44.7540  -55.5712 C.3       10 UNK         0.0855 
     19 C          24.6496  -45.0524  -54.7936 C.2       10 UNK         0.5543 
     20 N          24.3209  -44.2735  -53.7704 N.am      10 UNK        -0.7343 
     21 O          23.9350  -46.0137  -55.0716 O.2       10 UNK        -0.5027 
     22 N          26.0846  -45.4755  -56.8507 N.am      10 UNK        -0.4495 
     23 C          25.2847  -45.3287  -57.9155 C.2       10 UNK         0.4903 
     24 O          24.3216  -44.5620  -57.9589 O.2       10 UNK        -0.4860 
     25 CA         25.6198  -46.1651  -59.1579 C.3       9 UNK         0.0227 
     26 CB         26.6007  -45.3979  -60.0613 C.3       9 UNK        -0.1964 
     27 N          26.2021  -47.4641  -58.8076 N.am      9 UNK        -0.4231 
     28 C          25.5717  -48.6393  -58.9324 C.2       9 UNK         0.5014 
     29 O          24.4090  -48.7600  -59.3220 O.2       9 UNK        -0.5270 
     30 CA         26.3809  -49.9046  -58.6039 C.3       8 UNK         0.0284 
     31 CB         27.3799  -50.2162  -59.7310 C.3       8 UNK        -0.1977 
     32 N          27.0937  -49.8389  -57.3277 N.am      8 UNK        -0.4342 
     33 C          26.5122  -49.9037  -56.1215 C.2       8 UNK         0.5039 
     34 O          25.2948  -49.9631  -55.9489 O.2       8 UNK        -0.5547 
     35 CA         27.4454  -49.9253  -54.9006 C.3       7 UNK         0.0281 
     36 CB         28.0707  -51.3171  -54.7085 C.3       7 UNK        -0.1963 
     37 N          28.5027  -48.9249  -55.0377 N.am      7 UNK        -0.4444 
     38 C          28.4507  -47.6986  -54.5023 C.2       7 UNK         0.5104 
     39 O          27.5775  -47.3333  -53.7160 O.2       7 UNK        -0.5100 
     40 CA         29.5363  -46.6908  -54.9210 C.3       6 UNK         0.0396 
     41 CB         30.5016  -46.3979  -53.7674 C.3       6 UNK        -0.1801 
     42 N          30.2981  -47.0961  -56.1014 N.am      6 UNK        -0.4747 
     43 C          29.8150  -47.0569  -57.3501 C.2       6 UNK         0.5012 
     44 O          28.6634  -46.7159  -57.6214 O.2       6 UNK        -0.5003 
     45 CA         30.7394  -47.5534  -58.4789 C.3       5 UNK         0.0782 
     46 C46        31.6047  -46.4049  -59.0561 C.3       11 UNK        -0.0868 
     47 S47        33.0315  -45.9356  -58.0071 S.3       11 UNK        -0.2515 
     48 C48        32.9446  -44.1167  -58.0151 C.3       11 UNK         0.0199 
     49 N          31.5456  -48.7191  -58.0997 N.am      5 UNK        -0.4607 
     50 C          31.0725  -49.8755  -57.6197 C.2       4 UNK         0.5031 
     51 O          29.8725  -50.1055  -57.4650 O.2       4 UNK        -0.5119 
     52 CA         32.0934  -50.9412  -57.1831 C.3       4 UNK         0.0263 
     53 CB         33.5557  -50.6169  -57.5685 C.3       4 UNK        -0.1967 
     54 N          31.9880  -51.2149  -55.7444 N.am      4 UNK        -0.4237 
     55 C          32.1231  -50.3271  -54.7478 C.2       3 UNK         0.4908 
     56 O          32.3527  -49.1254  -54.9156 O.2       3 UNK        -0.5102 
     57 CA         31.9808  -50.8824  -53.3246 C.3       3 UNK         0.0241 
     58 CB         33.1292  -51.8486  -52.9773 C.3       3 UNK        -0.1971 
     59 N          31.9911  -49.7670  -52.3848 N.am      3 UNK        -0.4139 
     60 C          31.3490  -49.7147  -51.2111 C.2       2 UNK         0.5016 
     61 O          30.6535  -50.6350  -50.7788 O.2       2 UNK        -0.5319 
     62 CA         31.5103  -48.4346  -50.3682 C.3       2 UNK         0.0286 
     63 CB         31.8815  -48.7530  -48.9077 C.3       2 UNK        -0.1963 
     64 N          32.5151  -47.5353  -50.9374 N.am      2 UNK        -0.4790 
     65 C          32.4694  -46.2002  -50.9536 C.2       1 UNK         0.5024 
     66 O          31.5766  -45.5490  -50.4090 O.2       1 UNK        -0.4888 
     67 H67        37.5765  -47.5769  -52.0333 H         1 UNK         0.0892 
     68 H68        37.3175  -46.5718  -50.6062 H         1 UNK         0.0892 
     69 H69        36.9351  -48.2943  -50.5528 H         1 UNK         0.0892 
     70 H70        35.4738  -45.3196  -50.7599 H         1 UNK         0.3107 
     71 H71        33.4669  -45.7498  -52.7723 H         1 UNK         0.0773 
     72 H72        32.5112  -43.6071  -51.9145 H         1 UNK         0.0680 
     73 H73        33.6590  -43.6057  -50.5995 H         1 UNK         0.0680 
     74 H74        33.1793  -41.2723  -52.8133 H         1 UNK         0.0650 
     75 H75        34.3872  -41.1699  -54.0669 H         1 UNK         0.0650 
     76 H76        34.3314  -43.0605  -55.9199 H         1 UNK         0.1397 
     77 H77        30.3484  -43.9320  -57.2263 H         1 UNK         0.1363 
     78 H78        31.0006  -41.9971  -53.4475 H         1 UNK         0.1355 
     79 H79        28.7776  -41.9434  -54.4860 H         1 UNK         0.0707 
     80 H80        28.7366  -43.6803  -54.3328 H         1 UNK         0.0707 
     81 H81        25.5305  -42.7392  -56.3130 H         1 UNK         0.1034 
     82 H82        26.2838  -42.7341  -54.7438 H         1 UNK         0.1034 
     83 H83        26.7461  -45.1826  -54.9416 H         1 UNK         0.0482 
     84 H84        24.8965  -43.4964  -53.4893 H         1 UNK         0.3460 
     85 H85        23.4774  -44.4787  -53.2578 H         1 UNK         0.3460 
     86 H86        26.8902  -46.0825  -56.9400 H         1 UNK         0.2989 
     87 H87        24.6932  -46.3037  -59.7187 H         1 UNK         0.0559 
     88 H88        27.5430  -45.1877  -59.5537 H         1 UNK         0.0848 
     89 H89        26.1783  -44.4401  -60.3681 H         1 UNK         0.0848 
     90 H90        26.8257  -45.9583  -60.9687 H         1 UNK         0.0848 
     91 H91        27.1509  -47.4434  -58.4434 H         1 UNK         0.3144 
     92 H92        25.6766  -50.7376  -58.5464 H         1 UNK         0.0727 
     93 H93        28.1404  -49.4408  -59.8260 H         1 UNK         0.0790 
     94 H94        26.8718  -50.2957  -60.6931 H         1 UNK         0.0790 
     95 H95        27.8910  -51.1632  -59.5558 H         1 UNK         0.0790 
     96 H96        28.1115  -49.8609  -57.3789 H         1 UNK         0.3215 
     97 H97        26.8385  -49.7126  -54.0175 H         1 UNK         0.0863 
     98 H98        28.7226  -51.5944  -55.5372 H         1 UNK         0.0808 
     99 H99        27.2976  -52.0829  -54.6322 H         1 UNK         0.0808 
    100 H100       28.6561  -51.3595  -53.7904 H         1 UNK         0.0808 
    101 H101       29.2428  -49.1298  -55.6980 H         1 UNK         0.3118 
    102 H102       29.0242  -45.7624  -55.1696 H         1 UNK         0.0546 
    103 H103       31.2238  -45.6289  -54.0428 H         1 UNK         0.0828 
    104 H104       31.0521  -47.2895  -53.4740 H         1 UNK         0.0828 
    105 H105       29.9639  -46.0383  -52.8890 H         1 UNK         0.0828 
    106 H106       31.2356  -47.4511  -55.9473 H         1 UNK         0.3005 
    107 H107       30.0750  -47.8892  -59.2780 H         1 UNK         0.1257 
    108 H108       30.9827  -45.5330  -59.2674 H         1 UNK         0.0775 
    109 H109       32.0056  -46.7119  -60.0233 H         1 UNK         0.0775 
    110 H110       33.9509  -43.7310  -58.1863 H         1 UNK         0.0840 
    111 H111       32.3503  -43.7579  -58.8563 H         1 UNK         0.0840 
    112 H112       32.5462  -48.5899  -58.1430 H         1 UNK         0.2987 
    113 H113       31.8099  -51.8596  -57.6994 H         1 UNK         0.0785 
    114 H114       34.2196  -51.4369  -57.2946 H         1 UNK         0.0798 
    115 H115       33.6587  -50.4729  -58.6450 H         1 UNK         0.0798 
    116 H116       33.9276  -49.7187  -57.0736 H         1 UNK         0.0798 
    117 H117       31.7688  -52.1715  -55.5035 H         1 UNK         0.3079 
    118 H118       31.0259  -51.4074  -53.2611 H         1 UNK         0.0794 
    119 H119       33.0303  -52.2309  -51.9611 H         1 UNK         0.0786 
    120 H120       34.1010  -51.3586  -53.0552 H         1 UNK         0.0786 
    121 H121       33.1423  -52.7116  -53.6437 H         1 UNK         0.0786 
    122 H122       32.4880  -48.9548  -52.7291 H         1 UNK         0.3032 
    123 H123       30.5364  -47.9398  -50.3809 H         1 UNK         0.1094 
    124 H124       31.9442  -47.8449  -48.3078 H         1 UNK         0.0794 
    125 H125       31.1333  -49.3950  -48.4410 H         1 UNK         0.0794 
    126 H126       32.8416  -49.2660  -48.8415 H         1 UNK         0.0794 
    127 H127       33.3231  -47.9686  -51.3821 H         1 UNK         0.3016 
@<TRIPOS>BOND
     1    1    2 1    
     2    1   67 1    
     3    1   68 1    
     4    1   69 1    
     5    2    3 2    
     6    2    4 am   BACKBONE|DICT|INTERRES
     7    4    5 1    
     8    4   70 1    
     9    5    6 1    
    10    5   65 1    
    11    5   71 1    
    12    6    7 1    
    13    6   72 1    
    14    6   73 1    
    15    7    8 1    
    16    8    9 1    
    17    8   74 1    
    18    8   75 1    
    19    9   10 ar   
    20    9   14 ar   
    21   10   11 ar   
    22   10   76 1    
    23   11   12 ar   
    24   11   48 1    
    25   12   13 ar   
    26   12   77 1    
    27   13   14 ar   
    28   13   15 1    
    29   14   78 1    
    30   15   16 1    
    31   15   79 1    
    32   15   80 1    
    33   16   17 1    
    34   17   18 1    
    35   17   81 1    
    36   17   82 1    
    37   18   19 1    
    38   18   22 1    
    39   18   83 1    
    40   19   20 am   BACKBONE|DICT|INTERRES
    41   19   21 2    
    42   20   84 1    
    43   20   85 1    
    44   22   23 am   BACKBONE|DICT|INTERRES
    45   22   86 1    
    46   23   24 2    
    47   23   25 1    
    48   25   26 1    
    49   25   27 1    
    50   25   87 1    
    51   26   88 1    
    52   26   89 1    
    53   26   90 1    
    54   27   28 am   BACKBONE|DICT|INTERRES
    55   27   91 1    
    56   28   29 2    
    57   28   30 1    
    58   30   31 1    
    59   30   32 1    
    60   30   92 1    
    61   31   93 1    
    62   31   94 1    
    63   31   95 1    
    64   32   33 am   BACKBONE|DICT|INTERRES
    65   32   96 1    
    66   33   34 2    
    67   33   35 1    
    68   35   36 1    
    69   35   37 1    
    70   35   97 1    
    71   36   98 1    
    72   36   99 1    
    73   36  100 1    
    74   37   38 am   BACKBONE|DICT|INTERRES
    75   37  101 1    
    76   38   39 2    
    77   38   40 1    
    78   40   41 1    
    79   40   42 1    
    80   40  102 1    
    81   41  103 1    
    82   41  104 1    
    83   41  105 1    
    84   42   43 am   BACKBONE|DICT|INTERRES
    85   42  106 1    
    86   43   44 2    
    87   43   45 1    
    88   45   46 1    
    89   45   49 1    
    90   45  107 1    
    91   46   47 1    
    92   46  108 1    
    93   46  109 1    
    94   47   48 1    
    95   48  110 1    
    96   48  111 1    
    97   49   50 am   BACKBONE|DICT|INTERRES
    98   49  112 1    
    99   50   51 2    
   100   50   52 1    
   101   52   53 1    
   102   52   54 1    
   103   52  113 1    
   104   53  114 1    
   105   53  115 1    
   106   53  116 1    
   107   54   55 am   BACKBONE|DICT|INTERRES
   108   54  117 1    
   109   55   56 2    
   110   55   57 1    
   111   57   58 1    
   112   57   59 1    
   113   57  118 1    
   114   58  119 1    
   115   58  120 1    
   116   58  121 1    
   117   59   60 am   BACKBONE|DICT|INTERRES
   118   59  122 1    
   119   60   61 2    
   120   60   62 1    
   121   62   63 1    
   122   62   64 1    
   123   62  123 1    
   124   63  124 1    
   125   63  125 1    
   126   63  126 1    
   127   64   65 am   BACKBONE|DICT|INTERRES
   128   64  127 1    
   129   65   66 2    
@<TRIPOS>SUBSTRUCTURE
     1 UNK         1 GROUP             0       ****    0 ROOT    
