@<TRIPOS>MOLECULE
3R134
127   129    1
SMALL
USER_CHARGES


@<TRIPOS>ATOM
      1 CA         29.6966  -45.2411  -54.0374 C.3       0 UNK        -0.1968 
      2 C          30.4999  -45.1573  -52.7515 C.2       0 UNK         0.4852 
      3 O          30.0659  -45.6943  -51.7320 O.2       0 UNK        -0.5359 
      4 N          31.6681  -44.4981  -52.7858 N.am      1 UNK        -0.4300 
      5 CA         32.5721  -44.3813  -51.6336 C.3       1 UNK         0.0863 
      6 C6         33.5017  -43.1434  -51.7374 C.3       11 UNK        -0.0953 
      7 S7         34.8583  -43.2713  -52.9561 S.3       11 UNK        -0.2369 
      8 C8         34.4199  -41.9927  -54.1742 C.3       11 UNK         0.0226 
      9 C9         33.3604  -42.4805  -55.1491 C.ar      11 UNK        -0.0699 
     10 C10        33.6671  -43.5039  -56.0499 C.ar      11 UNK        -0.0804 
     11 C11        32.7128  -43.9594  -56.9620 C.ar      11 UNK        -0.0871 
     12 C12        31.4457  -43.3674  -56.9791 C.ar      11 UNK        -0.1008 
     13 C13        31.1235  -42.3400  -56.0843 C.ar      11 UNK        -0.0735 
     14 C14        32.0887  -41.8999  -55.1719 C.ar      11 UNK        -0.0945 
     15 C15        29.7391  -41.7002  -56.1096 C.3       11 UNK         0.0169 
     16 S16        28.8443  -41.9811  -54.5489 S.3       11 UNK        -0.2669 
     17 C17        27.1344  -41.5057  -54.9731 C.3       11 UNK        -0.0850 
     18 CA         26.1942  -42.7375  -55.1004 C.3       10 UNK         0.0855 
     19 C          24.6966  -42.3114  -55.0554 C.2       10 UNK         0.5543 
     20 N          23.8919  -42.5832  -56.0761 N.am      10 UNK        -0.7343 
     21 O          24.2540  -41.7296  -54.0681 O.2       10 UNK        -0.5027 
     22 N          26.5495  -43.5680  -56.2641 N.am      10 UNK        -0.4495 
     23 C          26.3269  -44.8833  -56.3744 C.2       10 UNK         0.4903 
     24 O          25.8327  -45.5866  -55.4903 O.2       10 UNK        -0.4860 
     25 CA         26.7503  -45.5110  -57.7073 C.3       9 UNK         0.0227 
     26 CB         28.2792  -45.4349  -57.8818 C.3       9 UNK        -0.1964 
     27 N          26.2851  -46.8978  -57.7855 N.am      9 UNK        -0.4231 
     28 C          26.1530  -47.5898  -58.9246 C.2       9 UNK         0.5014 
     29 O          26.4452  -47.1272  -60.0300 O.2       9 UNK        -0.5270 
     30 CA         25.6055  -49.0249  -58.8249 C.3       8 UNK         0.0284 
     31 CB         25.6128  -49.7554  -60.1883 C.3       8 UNK        -0.1977 
     32 N          26.3350  -49.8078  -57.8231 N.am      8 UNK        -0.4342 
     33 C          25.8794  -50.9469  -57.2760 C.2       8 UNK         0.5039 
     34 O          24.7758  -51.4306  -57.5343 O.2       8 UNK        -0.5547 
     35 CA         26.7865  -51.6909  -56.2741 C.3       7 UNK         0.0281 
     36 CB         27.6246  -52.7568  -56.9985 C.3       7 UNK        -0.1963 
     37 N          27.6819  -50.8145  -55.5228 N.am      7 UNK        -0.4444 
     38 C          27.2893  -49.8400  -54.6944 C.2       7 UNK         0.5104 
     39 O          26.1188  -49.6583  -54.3581 O.2       7 UNK        -0.5100 
     40 CA         28.3743  -48.8804  -54.1763 C.3       6 UNK         0.0396 
     41 CB         28.6863  -49.1759  -52.7018 C.3       6 UNK        -0.1801 
     42 N          29.6338  -48.8583  -54.9359 N.am      6 UNK        -0.4747 
     43 C          29.7791  -48.6043  -56.2471 C.2       6 UNK         0.5012 
     44 O          28.8417  -48.5160  -57.0385 O.2       6 UNK        -0.5003 
     45 CA         31.2187  -48.4292  -56.7572 C.3       5 UNK         0.0782 
     46 C46        31.7516  -47.0269  -56.3751 C.3       11 UNK        -0.0868 
     47 S47        33.3847  -46.6612  -57.0913 S.3       11 UNK        -0.2515 
     48 C48        33.0629  -45.0775  -57.9383 C.3       11 UNK         0.0199 
     49 N          32.0614  -49.5087  -56.2429 N.am      5 UNK        -0.4607 
     50 C          32.1119  -50.7415  -56.7638 C.2       4 UNK         0.5031 
     51 O          31.5144  -51.0775  -57.7862 O.2       4 UNK        -0.5119 
     52 CA         32.9622  -51.7826  -56.0140 C.3       4 UNK         0.0263 
     53 CB         34.4004  -51.7904  -56.5565 C.3       4 UNK        -0.1967 
     54 N          32.9917  -51.5648  -54.5654 N.am      4 UNK        -0.4237 
     55 C          31.9369  -51.7095  -53.7500 C.2       3 UNK         0.4908 
     56 O          30.8316  -52.1074  -54.1193 O.2       3 UNK        -0.5102 
     57 CA         32.1421  -51.3120  -52.2764 C.3       3 UNK         0.0241 
     58 CB         32.6109  -52.5238  -51.4550 C.3       3 UNK        -0.1971 
     59 N          33.0721  -50.1927  -52.0716 N.am      3 UNK        -0.4139 
     60 C          32.9249  -48.9648  -52.5881 C.2       2 UNK         0.5016 
     61 O          32.0197  -48.6508  -53.3659 O.2       2 UNK        -0.5319 
     62 CA         33.9955  -47.9310  -52.2229 C.3       2 UNK         0.0286 
     63 CB         35.1728  -48.0176  -53.2085 C.3       2 UNK        -0.1963 
     64 N          33.4055  -46.5991  -52.3168 N.am      2 UNK        -0.4790 
     65 C          33.3424  -45.6906  -51.3349 C.2       1 UNK         0.5024 
     66 O          33.8546  -45.8489  -50.2254 O.2       1 UNK        -0.4888 
     67 H67        29.6279  -46.2733  -54.3611 H         1 UNK         0.0892 
     68 H68        28.6841  -44.8714  -53.8780 H         1 UNK         0.0892 
     69 H69        30.1507  -44.6666  -54.8411 H         1 UNK         0.0892 
     70 H70        31.9825  -44.0564  -53.6400 H         1 UNK         0.3107 
     71 H71        31.9431  -44.2092  -50.7571 H         1 UNK         0.0773 
     72 H72        33.9628  -42.9576  -50.7657 H         1 UNK         0.0680 
     73 H73        32.9052  -42.2537  -51.9442 H         1 UNK         0.0680 
     74 H74        35.3165  -41.7267  -54.7356 H         1 UNK         0.0650 
     75 H75        34.1024  -41.0838  -53.6608 H         1 UNK         0.0650 
     76 H76        34.6511  -43.9534  -56.0358 H         1 UNK         0.1397 
     77 H77        30.7123  -43.7057  -57.6956 H         1 UNK         0.1363 
     78 H78        31.8454  -41.1037  -54.4812 H         1 UNK         0.1355 
     79 H79        29.8372  -40.6274  -56.2818 H         1 UNK         0.0707 
     80 H80        29.1509  -42.0969  -56.9378 H         1 UNK         0.0707 
     81 H81        26.7915  -40.8414  -54.1772 H         1 UNK         0.1034 
     82 H82        27.1205  -40.9066  -55.8852 H         1 UNK         0.1034 
     83 H83        26.3395  -43.3470  -54.2060 H         1 UNK         0.0482 
     84 H84        22.9242  -42.3051  -56.0296 H         1 UNK         0.3460 
     85 H85        24.2405  -43.0647  -56.8887 H         1 UNK         0.3460 
     86 H86        26.9441  -43.0745  -57.0503 H         1 UNK         0.2989 
     87 H87        26.2694  -44.9436  -58.5070 H         1 UNK         0.0559 
     88 H88        28.5952  -44.4056  -58.0438 H         1 UNK         0.0848 
     89 H89        28.6267  -46.0135  -58.7375 H         1 UNK         0.0848 
     90 H90        28.7952  -45.8029  -56.9962 H         1 UNK         0.0848 
     91 H91        25.9996  -47.3014  -56.9015 H         1 UNK         0.3144 
     92 H92        24.5683  -48.9293  -58.4968 H         1 UNK         0.0727 
     93 H93        25.1381  -50.7344  -60.1274 H         1 UNK         0.0790 
     94 H94        26.6287  -49.8991  -60.5580 H         1 UNK         0.0790 
     95 H95        25.0660  -49.1876  -60.9423 H         1 UNK         0.0790 
     96 H96        27.2463  -49.4425  -57.5467 H         1 UNK         0.3215 
     97 H97        26.1364  -52.1938  -55.5549 H         1 UNK         0.0863 
     98 H98        28.2080  -53.3501  -56.2938 H         1 UNK         0.0808 
     99 H99        28.3165  -52.3087  -57.7133 H         1 UNK         0.0808 
    100 H100       26.9855  -53.4470  -57.5511 H         1 UNK         0.0808 
    101 H101       28.6707  -50.8892  -55.7170 H         1 UNK         0.3118 
    102 H102       27.9482  -47.8775  -54.2369 H         1 UNK         0.0546 
    103 H103       29.0921  -50.1793  -52.5760 H         1 UNK         0.0828 
    104 H104       27.7856  -49.1098  -52.0901 H         1 UNK         0.0828 
    105 H105       29.4054  -48.4647  -52.2942 H         1 UNK         0.0828 
    106 H106       30.4823  -48.9103  -54.3743 H         1 UNK         0.3005 
    107 H107       31.1867  -48.4944  -57.8477 H         1 UNK         0.1257 
    108 H108       31.8346  -46.9168  -55.2940 H         1 UNK         0.0775 
    109 H109       31.0496  -46.2605  -56.7029 H         1 UNK         0.0775 
    110 H110       33.9532  -44.7922  -58.5005 H         1 UNK         0.0840 
    111 H111       32.2702  -45.2186  -58.6748 H         1 UNK         0.0840 
    112 H112       32.5354  -49.3218  -55.3695 H         1 UNK         0.2987 
    113 H113       32.5197  -52.7640  -56.1986 H         1 UNK         0.0785 
    114 H114       34.4099  -51.9769  -57.6314 H         1 UNK         0.0798 
    115 H115       34.9977  -52.5733  -56.0888 H         1 UNK         0.0798 
    116 H116       34.9022  -50.8365  -56.3875 H         1 UNK         0.0798 
    117 H117       33.8625  -51.2441  -54.1683 H         1 UNK         0.3079 
    118 H118       31.1722  -50.9981  -51.8879 H         1 UNK         0.0794 
    119 H119       32.6550  -52.2900  -50.3911 H         1 UNK         0.0786 
    120 H120       33.5987  -52.8664  -51.7660 H         1 UNK         0.0786 
    121 H121       31.9235  -53.3633  -51.5707 H         1 UNK         0.0786 
    122 H122       33.8558  -50.3696  -51.4591 H         1 UNK         0.3032 
    123 H123       34.3492  -48.1287  -51.2084 H         1 UNK         0.1094 
    124 H124       34.8513  -47.8558  -54.2388 H         1 UNK         0.0794 
    125 H125       35.9338  -47.2715  -52.9781 H         1 UNK         0.0794 
    126 H126       35.6548  -48.9950  -53.1641 H         1 UNK         0.0794 
    127 H127       32.8817  -46.4234  -53.1622 H         1 UNK         0.3016 
@<TRIPOS>BOND
     1    1    2 1    
     2    1   67 1    
     3    1   68 1    
     4    1   69 1    
     5    2    3 2    
     6    2    4 am   BACKBONE|DICT|INTERRES
     7    4    5 1    
     8    4   70 1    
     9    5    6 1    
    10    5   65 1    
    11    5   71 1    
    12    6    7 1    
    13    6   72 1    
    14    6   73 1    
    15    7    8 1    
    16    8    9 1    
    17    8   74 1    
    18    8   75 1    
    19    9   10 ar   
    20    9   14 ar   
    21   10   11 ar   
    22   10   76 1    
    23   11   12 ar   
    24   11   48 1    
    25   12   13 ar   
    26   12   77 1    
    27   13   14 ar   
    28   13   15 1    
    29   14   78 1    
    30   15   16 1    
    31   15   79 1    
    32   15   80 1    
    33   16   17 1    
    34   17   18 1    
    35   17   81 1    
    36   17   82 1    
    37   18   19 1    
    38   18   22 1    
    39   18   83 1    
    40   19   20 am   BACKBONE|DICT|INTERRES
    41   19   21 2    
    42   20   84 1    
    43   20   85 1    
    44   22   23 am   BACKBONE|DICT|INTERRES
    45   22   86 1    
    46   23   24 2    
    47   23   25 1    
    48   25   26 1    
    49   25   27 1    
    50   25   87 1    
    51   26   88 1    
    52   26   89 1    
    53   26   90 1    
    54   27   28 am   BACKBONE|DICT|INTERRES
    55   27   91 1    
    56   28   29 2    
    57   28   30 1    
    58   30   31 1    
    59   30   32 1    
    60   30   92 1    
    61   31   93 1    
    62   31   94 1    
    63   31   95 1    
    64   32   33 am   BACKBONE|DICT|INTERRES
    65   32   96 1    
    66   33   34 2    
    67   33   35 1    
    68   35   36 1    
    69   35   37 1    
    70   35   97 1    
    71   36   98 1    
    72   36   99 1    
    73   36  100 1    
    74   37   38 am   BACKBONE|DICT|INTERRES
    75   37  101 1    
    76   38   39 2    
    77   38   40 1    
    78   40   41 1    
    79   40   42 1    
    80   40  102 1    
    81   41  103 1    
    82   41  104 1    
    83   41  105 1    
    84   42   43 am   BACKBONE|DICT|INTERRES
    85   42  106 1    
    86   43   44 2    
    87   43   45 1    
    88   45   46 1    
    89   45   49 1    
    90   45  107 1    
    91   46   47 1    
    92   46  108 1    
    93   46  109 1    
    94   47   48 1    
    95   48  110 1    
    96   48  111 1    
    97   49   50 am   BACKBONE|DICT|INTERRES
    98   49  112 1    
    99   50   51 2    
   100   50   52 1    
   101   52   53 1    
   102   52   54 1    
   103   52  113 1    
   104   53  114 1    
   105   53  115 1    
   106   53  116 1    
   107   54   55 am   BACKBONE|DICT|INTERRES
   108   54  117 1    
   109   55   56 2    
   110   55   57 1    
   111   57   58 1    
   112   57   59 1    
   113   57  118 1    
   114   58  119 1    
   115   58  120 1    
   116   58  121 1    
   117   59   60 am   BACKBONE|DICT|INTERRES
   118   59  122 1    
   119   60   61 2    
   120   60   62 1    
   121   62   63 1    
   122   62   64 1    
   123   62  123 1    
   124   63  124 1    
   125   63  125 1    
   126   63  126 1    
   127   64   65 am   BACKBONE|DICT|INTERRES
   128   64  127 1    
   129   65   66 2    
@<TRIPOS>SUBSTRUCTURE
     1 UNK         1 GROUP             0       ****    0 ROOT    
