@<TRIPOS>MOLECULE
3R134
127   129    1
SMALL
USER_CHARGES


@<TRIPOS>ATOM
      1 CA         29.4131  -41.6255  -51.4730 C.3       0 UNK        -0.1968 
      2 C          30.2520  -42.7694  -50.9221 C.2       0 UNK         0.4852 
      3 O          30.1462  -43.0874  -49.7366 O.2       0 UNK        -0.5359 
      4 N          31.0933  -43.3749  -51.7709 N.am      1 UNK        -0.4300 
      5 CA         31.9687  -44.5052  -51.4433 C.3       1 UNK         0.0863 
      6 C6         32.9106  -44.8716  -52.6189 C.3       11 UNK        -0.0953 
      7 S7         33.9414  -43.4762  -53.1715 S.3       11 UNK        -0.2369 
      8 C8         34.7538  -44.2146  -54.6330 C.3       11 UNK         0.0226 
      9 C9         33.8871  -44.3882  -55.8851 C.ar      11 UNK        -0.0699 
     10 C10        34.4451  -45.0554  -56.9808 C.ar      11 UNK        -0.0804 
     11 C11        33.7227  -45.2250  -58.1655 C.ar      11 UNK        -0.0871 
     12 C12        32.4149  -44.7423  -58.2467 C.ar      11 UNK        -0.1008 
     13 C13        31.8369  -44.0791  -57.1622 C.ar      11 UNK        -0.0735 
     14 C14        32.5804  -43.8911  -55.9932 C.ar      11 UNK        -0.0945 
     15 C15        30.4118  -43.5581  -57.2652 C.3       11 UNK         0.0169 
     16 S16        29.2356  -44.7221  -56.5121 S.3       11 UNK        -0.2669 
     17 C17        29.3129  -44.2391  -54.7485 C.3       11 UNK        -0.0850 
     18 CA         27.9226  -44.1609  -54.0685 C.3       10 UNK         0.0855 
     19 C          27.0753  -42.9686  -54.6050 C.2       10 UNK         0.5543 
     20 N          25.9858  -43.1985  -55.3304 N.am      10 UNK        -0.7343 
     21 O          27.4134  -41.8164  -54.3476 O.2       10 UNK        -0.5027 
     22 N          27.2440  -45.4595  -54.1142 N.am      10 UNK        -0.4495 
     23 C          26.2083  -45.8218  -53.3504 C.2       10 UNK         0.4903 
     24 O          25.7955  -45.1513  -52.4029 O.2       10 UNK        -0.4860 
     25 CA         25.5114  -47.1551  -53.7006 C.3       9 UNK         0.0227 
     26 CB         23.9839  -47.0705  -53.4994 C.3       9 UNK        -0.1964 
     27 N          25.8137  -47.6916  -55.0387 N.am      9 UNK        -0.4231 
     28 C          25.6268  -47.1078  -56.2325 C.2       9 UNK         0.5014 
     29 O          25.2083  -45.9547  -56.3571 O.2       9 UNK        -0.5270 
     30 CA         25.9806  -47.9237  -57.4998 C.3       8 UNK         0.0284 
     31 CB         26.5738  -47.0272  -58.6024 C.3       8 UNK        -0.1977 
     32 N          26.8824  -49.0696  -57.3022 N.am      8 UNK        -0.4342 
     33 C          26.5779  -50.2196  -56.6807 C.2       8 UNK         0.5039 
     34 O          25.5161  -50.3961  -56.0827 O.2       8 UNK        -0.5547 
     35 CA         27.6359  -51.3435  -56.7010 C.3       7 UNK         0.0281 
     36 CB         27.0270  -52.7419  -56.4634 C.3       7 UNK        -0.1963 
     37 N          28.4718  -51.3362  -57.9067 N.am      7 UNK        -0.4444 
     38 C          28.0704  -51.4602  -59.1836 C.2       7 UNK         0.5104 
     39 O          26.9073  -51.6932  -59.5155 O.2       7 UNK        -0.5100 
     40 CA         29.1481  -51.2820  -60.2783 C.3       6 UNK         0.0396 
     41 CB         28.5816  -50.6079  -61.5462 C.3       6 UNK        -0.1801 
     42 N          30.3615  -50.5858  -59.8211 N.am      6 UNK        -0.4747 
     43 C          30.4333  -49.3466  -59.3111 C.2       6 UNK         0.5012 
     44 O          29.4651  -48.5902  -59.1984 O.2       6 UNK        -0.5003 
     45 CA         31.8082  -48.9085  -58.7716 C.3       5 UNK         0.0782 
     46 C46        32.5458  -48.0140  -59.7923 C.3       11 UNK        -0.0868 
     47 S47        34.2725  -47.7045  -59.2919 S.3       11 UNK        -0.2515 
     48 C48        34.3746  -45.8905  -59.3685 C.3       11 UNK         0.0199 
     49 N          31.6503  -48.2700  -57.4607 N.am      5 UNK        -0.4607 
     50 C          31.2228  -48.9172  -56.3701 C.2       4 UNK         0.5031 
     51 O          30.9812  -50.1275  -56.3426 O.2       4 UNK        -0.5119 
     52 CA         30.9691  -48.0759  -55.1129 C.3       4 UNK         0.0263 
     53 CB         29.4600  -47.9913  -54.8349 C.3       4 UNK        -0.1967 
     54 N          31.6232  -48.6629  -53.9467 N.am      4 UNK        -0.4237 
     55 C          32.9445  -48.7173  -53.7435 C.2       3 UNK         0.4908 
     56 O          33.7759  -48.2220  -54.5056 O.2       3 UNK        -0.5102 
     57 CA         33.3971  -49.4022  -52.4393 C.3       3 UNK         0.0241 
     58 CB         34.9303  -49.4708  -52.3049 C.3       3 UNK        -0.1971 
     59 N          32.8502  -48.6965  -51.2798 N.am      3 UNK        -0.4139 
     60 C          31.6159  -48.8553  -50.7805 C.2       2 UNK         0.5016 
     61 O          30.8184  -49.7028  -51.1829 O.2       2 UNK        -0.5319 
     62 CA         31.1813  -47.8400  -49.7093 C.3       2 UNK         0.0286 
     63 CB         31.6950  -48.2512  -48.3201 C.3       2 UNK        -0.1963 
     64 N          31.6546  -46.4901  -50.0368 N.am      2 UNK        -0.4790 
     65 C          31.1632  -45.7573  -51.0468 C.2       1 UNK         0.5024 
     66 O          30.1686  -46.0737  -51.7027 O.2       1 UNK        -0.4888 
     67 H67        29.6325  -41.4238  -52.5213 H         1 UNK         0.0892 
     68 H68        28.3529  -41.8636  -51.3900 H         1 UNK         0.0892 
     69 H69        29.6028  -40.7140  -50.9069 H         1 UNK         0.0892 
     70 H70        31.1678  -43.0383  -52.7178 H         1 UNK         0.3107 
     71 H71        32.5800  -44.2017  -50.5907 H         1 UNK         0.0773 
     72 H72        32.3384  -45.2437  -53.4710 H         1 UNK         0.0680 
     73 H73        33.5829  -45.6823  -52.3310 H         1 UNK         0.0680 
     74 H74        35.6042  -43.5834  -54.8941 H         1 UNK         0.0650 
     75 H75        35.1664  -45.1835  -54.3464 H         1 UNK         0.0650 
     76 H76        35.4568  -45.4333  -56.9172 H         1 UNK         0.1397 
     77 H77        31.8485  -44.8677  -59.1593 H         1 UNK         0.1363 
     78 H78        32.1295  -43.3550  -55.1732 H         1 UNK         0.1355 
     79 H79        30.1383  -43.4222  -58.3127 H         1 UNK         0.0707 
     80 H80        30.3271  -42.5729  -56.8044 H         1 UNK         0.0707 
     81 H81        29.8241  -43.2818  -54.6447 H         1 UNK         0.1034 
     82 H82        29.9374  -44.9647  -54.2264 H         1 UNK         0.1034 
     83 H83        28.1016  -43.9436  -53.0139 H         1 UNK         0.0482 
     84 H84        25.7234  -44.1464  -55.5804 H         1 UNK         0.3460 
     85 H85        25.4441  -42.4203  -55.6696 H         1 UNK         0.3460 
     86 H86        27.4862  -46.0458  -54.8977 H         1 UNK         0.2989 
     87 H87        25.8985  -47.8880  -52.9914 H         1 UNK         0.0559 
     88 H88        23.5014  -48.0236  -53.7160 H         1 UNK         0.0848 
     89 H89        23.5348  -46.3133  -54.1433 H         1 UNK         0.0848 
     90 H90        23.7340  -46.8114  -52.4698 H         1 UNK         0.0848 
     91 H91        26.0782  -48.6695  -55.0669 H         1 UNK         0.3144 
     92 H92        25.0342  -48.3195  -57.8733 H         1 UNK         0.0727 
     93 H93        26.7501  -47.5901  -59.5195 H         1 UNK         0.0790 
     94 H94        27.5236  -46.5887  -58.2939 H         1 UNK         0.0790 
     95 H95        25.9015  -46.2068  -58.8566 H         1 UNK         0.0790 
     96 H96        27.7777  -49.0072  -57.7743 H         1 UNK         0.3215 
     97 H97        28.3090  -51.1349  -55.8680 H         1 UNK         0.0863 
     98 H98        27.7945  -53.5158  -56.4703 H         1 UNK         0.0808 
     99 H99        26.2865  -52.9959  -57.2225 H         1 UNK         0.0808 
    100 H100       26.5279  -52.7925  -55.4949 H         1 UNK         0.0808 
    101 H101       29.4516  -51.1365  -57.7427 H         1 UNK         0.3118 
    102 H102       29.4632  -52.2894  -60.5538 H         1 UNK         0.0546 
    103 H103       28.1718  -49.6203  -61.3318 H         1 UNK         0.0828 
    104 H104       27.7782  -51.2031  -61.9818 H         1 UNK         0.0828 
    105 H105       29.3481  -50.4943  -62.3126 H         1 UNK         0.0828 
    106 H106       31.2079  -51.1390  -59.8560 H         1 UNK         0.3005 
    107 H107       32.4112  -49.8066  -58.6168 H         1 UNK         0.1257 
    108 H108       32.5771  -48.4963  -60.7714 H         1 UNK         0.0775 
    109 H109       32.0115  -47.0747  -59.9379 H         1 UNK         0.0775 
    110 H110       35.4264  -45.6038  -59.4145 H         1 UNK         0.0840 
    111 H111       33.9285  -45.5342  -60.2985 H         1 UNK         0.0840 
    112 H112       31.8244  -47.2758  -57.4210 H         1 UNK         0.2987 
    113 H113       31.3612  -47.0669  -55.2620 H         1 UNK         0.0785 
    114 H114       29.2566  -47.3716  -53.9622 H         1 UNK         0.0798 
    115 H115       29.0269  -48.9747  -54.6494 H         1 UNK         0.0798 
    116 H116       28.9314  -47.5580  -55.6838 H         1 UNK         0.0798 
    117 H117       31.0233  -49.0978  -53.2556 H         1 UNK         0.3079 
    118 H118       33.0156  -50.4256  -52.4549 H         1 UNK         0.0794 
    119 H119       35.3711  -50.0126  -53.1428 H         1 UNK         0.0786 
    120 H120       35.2252  -49.9913  -51.3936 H         1 UNK         0.0786 
    121 H121       35.3810  -48.4776  -52.2853 H         1 UNK         0.0786 
    122 H122       33.4200  -47.9552  -50.9007 H         1 UNK         0.3032 
    123 H123       30.0888  -47.8301  -49.6836 H         1 UNK         0.1094 
    124 H124       32.7847  -48.2709  -48.2761 H         1 UNK         0.0794 
    125 H125       31.3401  -47.5674  -47.5488 H         1 UNK         0.0794 
    126 H126       31.3404  -49.2483  -48.0546 H         1 UNK         0.0794 
    127 H127       32.4553  -46.1481  -49.5238 H         1 UNK         0.3016 
@<TRIPOS>BOND
     1    1    2 1    
     2    1   67 1    
     3    1   68 1    
     4    1   69 1    
     5    2    3 2    
     6    2    4 am   BACKBONE|DICT|INTERRES
     7    4    5 1    
     8    4   70 1    
     9    5    6 1    
    10    5   65 1    
    11    5   71 1    
    12    6    7 1    
    13    6   72 1    
    14    6   73 1    
    15    7    8 1    
    16    8    9 1    
    17    8   74 1    
    18    8   75 1    
    19    9   10 ar   
    20    9   14 ar   
    21   10   11 ar   
    22   10   76 1    
    23   11   12 ar   
    24   11   48 1    
    25   12   13 ar   
    26   12   77 1    
    27   13   14 ar   
    28   13   15 1    
    29   14   78 1    
    30   15   16 1    
    31   15   79 1    
    32   15   80 1    
    33   16   17 1    
    34   17   18 1    
    35   17   81 1    
    36   17   82 1    
    37   18   19 1    
    38   18   22 1    
    39   18   83 1    
    40   19   20 am   BACKBONE|DICT|INTERRES
    41   19   21 2    
    42   20   84 1    
    43   20   85 1    
    44   22   23 am   BACKBONE|DICT|INTERRES
    45   22   86 1    
    46   23   24 2    
    47   23   25 1    
    48   25   26 1    
    49   25   27 1    
    50   25   87 1    
    51   26   88 1    
    52   26   89 1    
    53   26   90 1    
    54   27   28 am   BACKBONE|DICT|INTERRES
    55   27   91 1    
    56   28   29 2    
    57   28   30 1    
    58   30   31 1    
    59   30   32 1    
    60   30   92 1    
    61   31   93 1    
    62   31   94 1    
    63   31   95 1    
    64   32   33 am   BACKBONE|DICT|INTERRES
    65   32   96 1    
    66   33   34 2    
    67   33   35 1    
    68   35   36 1    
    69   35   37 1    
    70   35   97 1    
    71   36   98 1    
    72   36   99 1    
    73   36  100 1    
    74   37   38 am   BACKBONE|DICT|INTERRES
    75   37  101 1    
    76   38   39 2    
    77   38   40 1    
    78   40   41 1    
    79   40   42 1    
    80   40  102 1    
    81   41  103 1    
    82   41  104 1    
    83   41  105 1    
    84   42   43 am   BACKBONE|DICT|INTERRES
    85   42  106 1    
    86   43   44 2    
    87   43   45 1    
    88   45   46 1    
    89   45   49 1    
    90   45  107 1    
    91   46   47 1    
    92   46  108 1    
    93   46  109 1    
    94   47   48 1    
    95   48  110 1    
    96   48  111 1    
    97   49   50 am   BACKBONE|DICT|INTERRES
    98   49  112 1    
    99   50   51 2    
   100   50   52 1    
   101   52   53 1    
   102   52   54 1    
   103   52  113 1    
   104   53  114 1    
   105   53  115 1    
   106   53  116 1    
   107   54   55 am   BACKBONE|DICT|INTERRES
   108   54  117 1    
   109   55   56 2    
   110   55   57 1    
   111   57   58 1    
   112   57   59 1    
   113   57  118 1    
   114   58  119 1    
   115   58  120 1    
   116   58  121 1    
   117   59   60 am   BACKBONE|DICT|INTERRES
   118   59  122 1    
   119   60   61 2    
   120   60   62 1    
   121   62   63 1    
   122   62   64 1    
   123   62  123 1    
   124   63  124 1    
   125   63  125 1    
   126   63  126 1    
   127   64   65 am   BACKBONE|DICT|INTERRES
   128   64  127 1    
   129   65   66 2    
@<TRIPOS>SUBSTRUCTURE
     1 UNK         1 GROUP             0       ****    0 ROOT    
