@<TRIPOS>MOLECULE
3R134
127   129    1
SMALL
USER_CHARGES


@<TRIPOS>ATOM
      1 CA         38.8836  -44.8703  -54.8213 C.3       0 UNK        -0.1968 
      2 C          37.5259  -45.4244  -55.2285 C.2       0 UNK         0.4852 
      3 O          37.2526  -45.5533  -56.4232 O.2       0 UNK        -0.5359 
      4 N          36.6732  -45.7450  -54.2464 N.am      1 UNK        -0.4300 
      5 CA         35.3553  -46.3547  -54.4490 C.3       1 UNK         0.0863 
      6 C6         34.4551  -46.1751  -53.1972 C.3       11 UNK        -0.0953 
      7 S7         32.7046  -45.9234  -53.6393 S.3       11 UNK        -0.2369 
      8 C8         32.6283  -44.1098  -53.5574 C.3       11 UNK         0.0226 
      9 C9         31.2389  -43.5774  -53.8680 C.ar      11 UNK        -0.0699 
     10 C10        30.2519  -43.5873  -52.8808 C.ar      11 UNK        -0.0804 
     11 C11        28.9924  -43.0338  -53.1286 C.ar      11 UNK        -0.0871 
     12 C12        28.7295  -42.4583  -54.3763 C.ar      11 UNK        -0.1008 
     13 C13        29.7119  -42.4333  -55.3772 C.ar      11 UNK        -0.0735 
     14 C14        30.9587  -43.0112  -55.1146 C.ar      11 UNK        -0.0945 
     15 C15        29.5200  -41.7130  -56.7146 C.3       11 UNK         0.0169 
     16 S16        27.7988  -41.2928  -57.1644 S.3       11 UNK        -0.2669 
     17 C17        27.2587  -42.7822  -58.0702 C.3       11 UNK        -0.0850 
     18 CA         26.3407  -43.7290  -57.2407 C.3       10 UNK         0.0855 
     19 C          24.8505  -43.2770  -57.1445 C.2       10 UNK         0.5543 
     20 N          24.5858  -41.9802  -57.0740 N.am      10 UNK        -0.7343 
     21 O          23.9294  -44.0901  -57.0846 O.2       10 UNK        -0.5027 
     22 N          26.4920  -45.1257  -57.6672 N.am      10 UNK        -0.4495 
     23 C          26.2275  -45.6179  -58.8854 C.2       10 UNK         0.4903 
     24 O          25.8107  -44.9416  -59.8278 O.2       10 UNK        -0.4860 
     25 CA         26.5005  -47.1226  -59.0776 C.3       9 UNK         0.0227 
     26 CB         26.5235  -47.5550  -60.5590 C.3       9 UNK        -0.1964 
     27 N          27.7149  -47.5604  -58.3804 N.am      9 UNK        -0.4231 
     28 C          28.9782  -47.1501  -58.5776 C.2       9 UNK         0.5014 
     29 O          29.3204  -46.3716  -59.4686 O.2       9 UNK        -0.5270 
     30 CA         30.0488  -47.6778  -57.6002 C.3       8 UNK         0.0284 
     31 CB         30.5169  -46.5557  -56.6597 C.3       8 UNK        -0.1977 
     32 N          29.5973  -48.8134  -56.7904 N.am      8 UNK        -0.4342 
     33 C          29.4028  -50.0553  -57.2566 C.2       8 UNK         0.5039 
     34 O          29.6728  -50.4112  -58.4035 O.2       8 UNK        -0.5547 
     35 CA         28.7570  -51.0535  -56.2851 C.3       7 UNK         0.0281 
     36 CB         29.8232  -51.7075  -55.3923 C.3       7 UNK        -0.1963 
     37 N          27.7306  -50.4106  -55.4576 N.am      7 UNK        -0.4444 
     38 C          26.5167  -50.0564  -55.9064 C.2       7 UNK         0.5104 
     39 O          26.1194  -50.2809  -57.0489 O.2       7 UNK        -0.5100 
     40 CA         25.5980  -49.2954  -54.9340 C.3       6 UNK         0.0396 
     41 CB         24.7442  -50.2809  -54.1210 C.3       6 UNK        -0.1801 
     42 N          26.3242  -48.4122  -54.0191 N.am      6 UNK        -0.4747 
     43 C          26.9893  -47.3054  -54.3847 C.2       6 UNK         0.5012 
     44 O          27.0375  -46.8885  -55.5403 O.2       6 UNK        -0.5003 
     45 CA         27.7643  -46.5646  -53.2761 C.3       5 UNK         0.0782 
     46 C46        26.8338  -45.5230  -52.6065 C.3       11 UNK        -0.0868 
     47 S47        27.6407  -44.6082  -51.2520 S.3       11 UNK        -0.2515 
     48 C48        27.9402  -42.9862  -52.0263 C.3       11 UNK         0.0199 
     49 N          28.3713  -47.4853  -52.3027 N.am      5 UNK        -0.4607 
     50 C          29.2251  -48.4739  -52.5977 C.2       4 UNK         0.5031 
     51 O          29.6005  -48.7324  -53.7456 O.2       4 UNK        -0.5119 
     52 CA         29.6479  -49.3711  -51.4216 C.3       4 UNK         0.0263 
     53 CB         28.4688  -50.2513  -50.9700 C.3       4 UNK        -0.1967 
     54 N          30.7570  -50.2454  -51.8000 N.am      4 UNK        -0.4237 
     55 C          32.0438  -49.8812  -51.8264 C.2       3 UNK         0.4908 
     56 O          32.4641  -48.8066  -51.3975 O.2       3 UNK        -0.5102 
     57 CA         33.0279  -50.8528  -52.4888 C.3       3 UNK         0.0241 
     58 CB         32.4916  -52.3006  -52.6178 C.3       3 UNK        -0.1971 
     59 N          33.3480  -50.2565  -53.7821 N.am      3 UNK        -0.4139 
     60 C          34.1957  -50.7076  -54.7136 C.2       2 UNK         0.5016 
     61 O          34.8188  -51.7671  -54.6426 O.2       2 UNK        -0.5319 
     62 CA         34.4027  -49.7859  -55.9289 C.3       2 UNK         0.0286 
     63 CB         33.2668  -49.9721  -56.9473 C.3       2 UNK        -0.1963 
     64 N          34.4928  -48.3695  -55.5542 N.am      2 UNK        -0.4790 
     65 C          35.4912  -47.8433  -54.8309 C.2       1 UNK         0.5024 
     66 O          36.4663  -48.4912  -54.4403 O.2       1 UNK        -0.4888 
     67 H67        39.6786  -45.5168  -55.1920 H         1 UNK         0.0892 
     68 H68        38.9858  -44.7943  -53.7389 H         1 UNK         0.0892 
     69 H69        39.0261  -43.8767  -55.2454 H         1 UNK         0.0892 
     70 H70        36.9704  -45.6538  -53.2856 H         1 UNK         0.3107 
     71 H71        34.8971  -45.8330  -55.2928 H         1 UNK         0.0773 
     72 H72        34.7799  -45.3151  -52.6093 H         1 UNK         0.0680 
     73 H73        34.5265  -47.0252  -52.5149 H         1 UNK         0.0680 
     74 H74        32.9239  -43.7810  -52.5598 H         1 UNK         0.0650 
     75 H75        33.3607  -43.6903  -54.2491 H         1 UNK         0.0650 
     76 H76        30.4722  -44.0107  -51.9102 H         1 UNK         0.1397 
     77 H77        27.7681  -41.9954  -54.5451 H         1 UNK         0.1363 
     78 H78        31.7315  -42.9814  -55.8708 H         1 UNK         0.1355 
     79 H79        29.9788  -42.2903  -57.5185 H         1 UNK         0.0707 
     80 H80        30.0794  -40.7780  -56.6636 H         1 UNK         0.0707 
     81 H81        28.1474  -43.3219  -58.4006 H         1 UNK         0.1034 
     82 H82        26.7593  -42.4728  -58.9903 H         1 UNK         0.1034 
     83 H83        26.7026  -43.7328  -56.2122 H         1 UNK         0.0482 
     84 H84        23.6301  -41.6703  -56.9940 H         1 UNK         0.3460 
     85 H85        25.3394  -41.3085  -57.0983 H         1 UNK         0.3460 
     86 H86        26.7706  -45.7776  -56.9360 H         1 UNK         0.2989 
     87 H87        25.6728  -47.6445  -58.5951 H         1 UNK         0.0559 
     88 H88        27.2924  -47.0275  -61.1240 H         1 UNK         0.0848 
     89 H89        25.5674  -47.3474  -61.0410 H         1 UNK         0.0848 
     90 H90        26.7092  -48.6246  -60.6564 H         1 UNK         0.0848 
     91 H91        27.5563  -48.1681  -57.5888 H         1 UNK         0.3144 
     92 H92        30.9032  -48.0029  -58.1976 H         1 UNK         0.0727 
     93 H93        31.3032  -46.9074  -55.9940 H         1 UNK         0.0790 
     94 H94        29.7020  -46.1737  -56.0440 H         1 UNK         0.0790 
     95 H95        30.9204  -45.7126  -57.2220 H         1 UNK         0.0790 
     96 H96        29.4071  -48.6329  -55.8092 H         1 UNK         0.3215 
     97 H97        28.2811  -51.8392  -56.8766 H         1 UNK         0.0863 
     98 H98        30.5465  -52.2587  -55.9950 H         1 UNK         0.0808 
     99 H99        29.3780  -52.4151  -54.6930 H         1 UNK         0.0808 
    100 H100       30.3821  -50.9683  -54.8192 H         1 UNK         0.0808 
    101 H101       28.0081  -50.1235  -54.5290 H         1 UNK         0.3118 
    102 H102       24.9256  -48.6766  -55.5323 H         1 UNK         0.0546 
    103 H103       24.1728  -50.9366  -54.7797 H         1 UNK         0.0828 
    104 H104       24.0271  -49.7574  -53.4886 H         1 UNK         0.0828 
    105 H105       25.3567  -50.9169  -53.4807 H         1 UNK         0.0828 
    106 H106       26.3355  -48.6741  -53.0440 H         1 UNK         0.3005 
    107 H107       28.5837  -46.0301  -53.7626 H         1 UNK         0.1257 
    108 H108       25.9508  -46.0103  -52.1881 H         1 UNK         0.0775 
    109 H109       26.4617  -44.8125  -53.3477 H         1 UNK         0.0775 
    110 H110       26.9946  -42.5902  -52.4003 H         1 UNK         0.0840 
    111 H111       28.2776  -42.2909  -51.2566 H         1 UNK         0.0840 
    112 H112       28.1170  -47.3279  -51.3381 H         1 UNK         0.2987 
    113 H113       29.9572  -48.7331  -50.5907 H         1 UNK         0.0785 
    114 H114       27.6321  -49.6466  -50.6181 H         1 UNK         0.0798 
    115 H115       28.7572  -50.9035  -50.1453 H         1 UNK         0.0798 
    116 H116       28.0987  -50.8820  -51.7795 H         1 UNK         0.0798 
    117 H117       30.5084  -51.1324  -52.2109 H         1 UNK         0.3079 
    118 H118       33.9345  -50.8665  -51.8810 H         1 UNK         0.0794 
    119 H119       31.6856  -52.3836  -53.3452 H         1 UNK         0.0786 
    120 H120       32.1218  -52.6717  -51.6608 H         1 UNK         0.0786 
    121 H121       33.2787  -52.9876  -52.9273 H         1 UNK         0.0786 
    122 H122       32.9241  -49.3504  -53.9347 H         1 UNK         0.3032 
    123 H123       35.3435  -50.0727  -56.4047 H         1 UNK         0.1094 
    124 H124       33.4390  -49.3851  -57.8496 H         1 UNK         0.0794 
    125 H125       33.1812  -51.0161  -57.2523 H         1 UNK         0.0794 
    126 H126       32.3042  -49.6752  -56.5321 H         1 UNK         0.0794 
    127 H127       33.7277  -47.7713  -55.8321 H         1 UNK         0.3016 
@<TRIPOS>BOND
     1    1    2 1    
     2    1   67 1    
     3    1   68 1    
     4    1   69 1    
     5    2    3 2    
     6    2    4 am   BACKBONE|DICT|INTERRES
     7    4    5 1    
     8    4   70 1    
     9    5    6 1    
    10    5   65 1    
    11    5   71 1    
    12    6    7 1    
    13    6   72 1    
    14    6   73 1    
    15    7    8 1    
    16    8    9 1    
    17    8   74 1    
    18    8   75 1    
    19    9   10 ar   
    20    9   14 ar   
    21   10   11 ar   
    22   10   76 1    
    23   11   12 ar   
    24   11   48 1    
    25   12   13 ar   
    26   12   77 1    
    27   13   14 ar   
    28   13   15 1    
    29   14   78 1    
    30   15   16 1    
    31   15   79 1    
    32   15   80 1    
    33   16   17 1    
    34   17   18 1    
    35   17   81 1    
    36   17   82 1    
    37   18   19 1    
    38   18   22 1    
    39   18   83 1    
    40   19   20 am   BACKBONE|DICT|INTERRES
    41   19   21 2    
    42   20   84 1    
    43   20   85 1    
    44   22   23 am   BACKBONE|DICT|INTERRES
    45   22   86 1    
    46   23   24 2    
    47   23   25 1    
    48   25   26 1    
    49   25   27 1    
    50   25   87 1    
    51   26   88 1    
    52   26   89 1    
    53   26   90 1    
    54   27   28 am   BACKBONE|DICT|INTERRES
    55   27   91 1    
    56   28   29 2    
    57   28   30 1    
    58   30   31 1    
    59   30   32 1    
    60   30   92 1    
    61   31   93 1    
    62   31   94 1    
    63   31   95 1    
    64   32   33 am   BACKBONE|DICT|INTERRES
    65   32   96 1    
    66   33   34 2    
    67   33   35 1    
    68   35   36 1    
    69   35   37 1    
    70   35   97 1    
    71   36   98 1    
    72   36   99 1    
    73   36  100 1    
    74   37   38 am   BACKBONE|DICT|INTERRES
    75   37  101 1    
    76   38   39 2    
    77   38   40 1    
    78   40   41 1    
    79   40   42 1    
    80   40  102 1    
    81   41  103 1    
    82   41  104 1    
    83   41  105 1    
    84   42   43 am   BACKBONE|DICT|INTERRES
    85   42  106 1    
    86   43   44 2    
    87   43   45 1    
    88   45   46 1    
    89   45   49 1    
    90   45  107 1    
    91   46   47 1    
    92   46  108 1    
    93   46  109 1    
    94   47   48 1    
    95   48  110 1    
    96   48  111 1    
    97   49   50 am   BACKBONE|DICT|INTERRES
    98   49  112 1    
    99   50   51 2    
   100   50   52 1    
   101   52   53 1    
   102   52   54 1    
   103   52  113 1    
   104   53  114 1    
   105   53  115 1    
   106   53  116 1    
   107   54   55 am   BACKBONE|DICT|INTERRES
   108   54  117 1    
   109   55   56 2    
   110   55   57 1    
   111   57   58 1    
   112   57   59 1    
   113   57  118 1    
   114   58  119 1    
   115   58  120 1    
   116   58  121 1    
   117   59   60 am   BACKBONE|DICT|INTERRES
   118   59  122 1    
   119   60   61 2    
   120   60   62 1    
   121   62   63 1    
   122   62   64 1    
   123   62  123 1    
   124   63  124 1    
   125   63  125 1    
   126   63  126 1    
   127   64   65 am   BACKBONE|DICT|INTERRES
   128   64  127 1    
   129   65   66 2    
@<TRIPOS>SUBSTRUCTURE
     1 UNK         1 GROUP             0       ****    0 ROOT    
