@<TRIPOS>MOLECULE
3R134
127   129    1
SMALL
USER_CHARGES


@<TRIPOS>ATOM
      1 CA         40.3833  -46.4872  -53.7218 C.3       0 UNK        -0.1968 
      2 C          38.9408  -46.9677  -53.7867 C.2       0 UNK         0.4852 
      3 O          38.7025  -48.1695  -53.9165 O.2       0 UNK        -0.5359 
      4 N          37.9786  -46.0394  -53.7050 N.am      1 UNK        -0.4300 
      5 CA         36.5424  -46.3216  -53.6856 C.3       1 UNK         0.0863 
      6 C6         35.7222  -45.0466  -54.0024 C.3       11 UNK        -0.0953 
      7 S7         33.9511  -45.3771  -54.3040 S.3       11 UNK        -0.2369 
      8 C8         33.1589  -44.1825  -53.1782 C.3       11 UNK         0.0226 
      9 C9         31.7877  -43.7514  -53.6830 C.ar      11 UNK        -0.0699 
     10 C10        30.6299  -44.0068  -52.9385 C.ar      11 UNK        -0.0804 
     11 C11        29.3819  -43.5542  -53.3851 C.ar      11 UNK        -0.0871 
     12 C12        29.3043  -42.8433  -54.5890 C.ar      11 UNK        -0.1008 
     13 C13        30.4478  -42.6019  -55.3530 C.ar      11 UNK        -0.0735 
     14 C14        31.6876  -43.0456  -54.8861 C.ar      11 UNK        -0.0945 
     15 C15        30.3526  -41.8521  -56.6743 C.3       11 UNK         0.0169 
     16 S16        29.8234  -42.9406  -58.0397 S.3       11 UNK        -0.2669 
     17 C17        28.0004  -42.8387  -57.9440 C.3       11 UNK        -0.0850 
     18 CA         27.3183  -44.1616  -57.4760 C.3       10 UNK         0.0855 
     19 C          25.7774  -44.0454  -57.2561 C.2       10 UNK         0.5543 
     20 N          25.2547  -42.8744  -56.9154 N.am      10 UNK        -0.7343 
     21 O          25.0454  -45.0303  -57.3380 O.2       10 UNK        -0.5027 
     22 N          27.6641  -45.3346  -58.2965 N.am      10 UNK        -0.4495 
     23 C          27.4164  -45.4995  -59.6034 C.2       10 UNK         0.4903 
     24 O          26.9712  -44.6249  -60.3468 O.2       10 UNK        -0.4860 
     25 CA         27.6735  -46.9049  -60.1662 C.3       9 UNK         0.0227 
     26 CB         29.1774  -47.1883  -60.3109 C.3       9 UNK        -0.1964 
     27 N          27.0640  -47.9137  -59.3002 N.am      9 UNK        -0.4231 
     28 C          25.8187  -48.3872  -59.4373 C.2       9 UNK         0.5014 
     29 O          25.0812  -48.0998  -60.3824 O.2       9 UNK        -0.5270 
     30 CA         25.2951  -49.3166  -58.3228 C.3       8 UNK         0.0284 
     31 CB         24.2468  -50.3312  -58.8283 C.3       8 UNK        -0.1977 
     32 N          26.3538  -49.9845  -57.5550 N.am      8 UNK        -0.4342 
     33 C          27.2398  -50.8983  -57.9842 C.2       8 UNK         0.5039 
     34 O          27.2637  -51.3419  -59.1327 O.2       8 UNK        -0.5547 
     35 CA         28.3008  -51.3921  -56.9772 C.3       7 UNK         0.0281 
     36 CB         29.7112  -50.9853  -57.4375 C.3       7 UNK        -0.1963 
     37 N          28.0851  -50.8959  -55.6148 N.am      7 UNK        -0.4444 
     38 C          27.1698  -51.3714  -54.7591 C.2       7 UNK         0.5104 
     39 O          26.4719  -52.3609  -54.9796 O.2       7 UNK        -0.5100 
     40 CA         26.9614  -50.5705  -53.4621 C.3       6 UNK         0.0396 
     41 CB         27.8235  -51.1385  -52.3236 C.3       6 UNK        -0.1801 
     42 N          27.2411  -49.1396  -53.6372 N.am      6 UNK        -0.4747 
     43 C          26.4545  -48.2971  -54.3272 C.2       6 UNK         0.5012 
     44 O          25.4114  -48.6464  -54.8781 O.2       6 UNK        -0.5003 
     45 CA         26.9272  -46.8355  -54.4695 C.3       5 UNK         0.0782 
     46 C46        26.5143  -46.0199  -53.2220 C.3       11 UNK        -0.0868 
     47 S47        26.6517  -44.2222  -53.4836 S.3       11 UNK        -0.2515 
     48 C48        28.1374  -43.7598  -52.5243 C.3       11 UNK         0.0199 
     49 N          28.3673  -46.7506  -54.7249 N.am      5 UNK        -0.4607 
     50 C          28.9976  -47.2578  -55.7927 C.2       4 UNK         0.5031 
     51 O          28.4107  -47.7135  -56.7741 O.2       4 UNK        -0.5119 
     52 CA         30.5361  -47.2965  -55.7521 C.3       4 UNK         0.0263 
     53 CB         31.1196  -46.1622  -56.6015 C.3       4 UNK        -0.1967 
     54 N          31.0841  -47.2419  -54.3891 N.am      4 UNK        -0.4237 
     55 C          30.8817  -48.1993  -53.4735 C.2       3 UNK         0.4908 
     56 O          30.2836  -49.2476  -53.7200 O.2       3 UNK        -0.5102 
     57 CA         31.4069  -47.9433  -52.0578 C.3       3 UNK         0.0241 
     58 CB         30.5066  -48.6198  -50.9983 C.3       3 UNK        -0.1971 
     59 N          32.7788  -48.4348  -51.9921 N.am      3 UNK        -0.4139 
     60 C          33.6244  -48.2926  -50.9630 C.2       2 UNK         0.5016 
     61 O          33.3450  -47.7342  -49.9018 O.2       2 UNK        -0.5319 
     62 CA         35.0466  -48.8283  -51.1858 C.3       2 UNK         0.0286 
     63 CB         35.0590  -50.3561  -51.3704 C.3       2 UNK        -0.1963 
     64 N          35.6542  -48.1772  -52.3472 N.am      2 UNK        -0.4790 
     65 C          36.1473  -46.9319  -52.3273 C.2       1 UNK         0.5024 
     66 O          36.2835  -46.2616  -51.3011 O.2       1 UNK        -0.4888 
     67 H67        40.9149  -46.7724  -54.6292 H         1 UNK         0.0892 
     68 H68        40.4489  -45.4043  -53.6171 H         1 UNK         0.0892 
     69 H69        40.8917  -46.9412  -52.8717 H         1 UNK         0.0892 
     70 H70        38.2356  -45.0719  -53.5702 H         1 UNK         0.3107 
     71 H71        36.3396  -47.0506  -54.4736 H         1 UNK         0.0773 
     72 H72        36.1116  -44.5758  -54.9065 H         1 UNK         0.0680 
     73 H73        35.8418  -44.3070  -53.2086 H         1 UNK         0.0680 
     74 H74        33.0967  -44.6213  -52.1810 H         1 UNK         0.0650 
     75 H75        33.7792  -43.2899  -53.0874 H         1 UNK         0.0650 
     76 H76        30.7049  -44.5248  -51.9923 H         1 UNK         0.1397 
     77 H77        28.3499  -42.4703  -54.9319 H         1 UNK         0.1363 
     78 H78        32.5805  -42.8492  -55.4640 H         1 UNK         0.1355 
     79 H79        31.3267  -41.4335  -56.9319 H         1 UNK         0.0707 
     80 H80        29.6809  -40.9981  -56.5792 H         1 UNK         0.0707 
     81 H81        27.6253  -42.5426  -58.9245 H         1 UNK         0.1034 
     82 H82        27.7401  -42.0174  -57.2771 H         1 UNK         0.1034 
     83 H83        27.7155  -44.3918  -56.4878 H         1 UNK         0.0482 
     84 H84        25.8213  -42.0493  -56.8095 H         1 UNK         0.3460 
     85 H85        24.2614  -42.8190  -56.7534 H         1 UNK         0.3460 
     86 H86        27.9830  -46.1432  -57.7754 H         1 UNK         0.2989 
     87 H87        27.2301  -46.9546  -61.1630 H         1 UNK         0.0559 
     88 H88        29.6744  -47.2567  -59.3444 H         1 UNK         0.0848 
     89 H89        29.6724  -46.4016  -60.8820 H         1 UNK         0.0848 
     90 H90        29.3494  -48.1279  -60.8360 H         1 UNK         0.0848 
     91 H91        27.5726  -48.1535  -58.4538 H         1 UNK         0.3144 
     92 H92        24.7908  -48.6590  -57.6132 H         1 UNK         0.0727 
     93 H93        24.6517  -50.9789  -59.6064 H         1 UNK         0.0790 
     94 H94        23.3800  -49.8214  -59.2504 H         1 UNK         0.0790 
     95 H95        23.8850  -50.9641  -58.0180 H         1 UNK         0.0790 
     96 H96        26.4262  -49.6836  -56.5913 H         1 UNK         0.3215 
     97 H97        28.2494  -52.4830  -56.9595 H         1 UNK         0.0863 
     98 H98        29.7981  -49.9072  -57.5699 H         1 UNK         0.0808 
     99 H99        29.9540  -51.4463  -58.3958 H         1 UNK         0.0808 
    100 H100       30.4728  -51.3019  -56.7245 H         1 UNK         0.0808 
    101 H101       28.6403  -50.1031  -55.3204 H         1 UNK         0.3118 
    102 H102       25.9136  -50.6766  -53.1725 H         1 UNK         0.0546 
    103 H103       27.6773  -50.5835  -51.3970 H         1 UNK         0.0828 
    104 H104       28.8861  -51.1170  -52.5653 H         1 UNK         0.0828 
    105 H105       27.5611  -52.1779  -52.1224 H         1 UNK         0.0828 
    106 H106       28.1286  -48.8095  -53.2816 H         1 UNK         0.3005 
    107 H107       26.4093  -46.4265  -55.3398 H         1 UNK         0.1257 
    108 H108       27.0880  -46.3249  -52.3453 H         1 UNK         0.0775 
    109 H109       25.4684  -46.2113  -52.9724 H         1 UNK         0.0775 
    110 H110       27.9280  -42.8194  -52.0130 H         1 UNK         0.0840 
    111 H111       28.3205  -44.4921  -51.7371 H         1 UNK         0.0840 
    112 H112       28.9246  -46.3285  -53.9983 H         1 UNK         0.2987 
    113 H113       30.8502  -48.2432  -56.1951 H         1 UNK         0.0785 
    114 H114       32.2088  -46.1850  -56.6138 H         1 UNK         0.0798 
    115 H115       30.7868  -46.2290  -57.6363 H         1 UNK         0.0798 
    116 H116       30.8019  -45.1912  -56.2311 H         1 UNK         0.0798 
    117 H117       31.6262  -46.4216  -54.1505 H         1 UNK         0.3079 
    118 H118       31.4129  -46.8673  -51.8765 H         1 UNK         0.0794 
    119 H119       30.7844  -48.3299  -49.9854 H         1 UNK         0.0786 
    120 H120       30.5600  -49.7075  -51.0589 H         1 UNK         0.0786 
    121 H121       29.4619  -48.3357  -51.1311 H         1 UNK         0.0786 
    122 H122       33.1078  -48.9004  -52.8267 H         1 UNK         0.3032 
    123 H123       35.6354  -48.5934  -50.2954 H         1 UNK         0.1094 
    124 H124       34.5901  -50.8537  -50.5202 H         1 UNK         0.0794 
    125 H125       34.5247  -50.6705  -52.2674 H         1 UNK         0.0794 
    126 H126       36.0790  -50.7344  -51.4417 H         1 UNK         0.0794 
    127 H127       35.6177  -48.6726  -53.2269 H         1 UNK         0.3016 
@<TRIPOS>BOND
     1    1    2 1    
     2    1   67 1    
     3    1   68 1    
     4    1   69 1    
     5    2    3 2    
     6    2    4 am   BACKBONE|DICT|INTERRES
     7    4    5 1    
     8    4   70 1    
     9    5    6 1    
    10    5   65 1    
    11    5   71 1    
    12    6    7 1    
    13    6   72 1    
    14    6   73 1    
    15    7    8 1    
    16    8    9 1    
    17    8   74 1    
    18    8   75 1    
    19    9   10 ar   
    20    9   14 ar   
    21   10   11 ar   
    22   10   76 1    
    23   11   12 ar   
    24   11   48 1    
    25   12   13 ar   
    26   12   77 1    
    27   13   14 ar   
    28   13   15 1    
    29   14   78 1    
    30   15   16 1    
    31   15   79 1    
    32   15   80 1    
    33   16   17 1    
    34   17   18 1    
    35   17   81 1    
    36   17   82 1    
    37   18   19 1    
    38   18   22 1    
    39   18   83 1    
    40   19   20 am   BACKBONE|DICT|INTERRES
    41   19   21 2    
    42   20   84 1    
    43   20   85 1    
    44   22   23 am   BACKBONE|DICT|INTERRES
    45   22   86 1    
    46   23   24 2    
    47   23   25 1    
    48   25   26 1    
    49   25   27 1    
    50   25   87 1    
    51   26   88 1    
    52   26   89 1    
    53   26   90 1    
    54   27   28 am   BACKBONE|DICT|INTERRES
    55   27   91 1    
    56   28   29 2    
    57   28   30 1    
    58   30   31 1    
    59   30   32 1    
    60   30   92 1    
    61   31   93 1    
    62   31   94 1    
    63   31   95 1    
    64   32   33 am   BACKBONE|DICT|INTERRES
    65   32   96 1    
    66   33   34 2    
    67   33   35 1    
    68   35   36 1    
    69   35   37 1    
    70   35   97 1    
    71   36   98 1    
    72   36   99 1    
    73   36  100 1    
    74   37   38 am   BACKBONE|DICT|INTERRES
    75   37  101 1    
    76   38   39 2    
    77   38   40 1    
    78   40   41 1    
    79   40   42 1    
    80   40  102 1    
    81   41  103 1    
    82   41  104 1    
    83   41  105 1    
    84   42   43 am   BACKBONE|DICT|INTERRES
    85   42  106 1    
    86   43   44 2    
    87   43   45 1    
    88   45   46 1    
    89   45   49 1    
    90   45  107 1    
    91   46   47 1    
    92   46  108 1    
    93   46  109 1    
    94   47   48 1    
    95   48  110 1    
    96   48  111 1    
    97   49   50 am   BACKBONE|DICT|INTERRES
    98   49  112 1    
    99   50   51 2    
   100   50   52 1    
   101   52   53 1    
   102   52   54 1    
   103   52  113 1    
   104   53  114 1    
   105   53  115 1    
   106   53  116 1    
   107   54   55 am   BACKBONE|DICT|INTERRES
   108   54  117 1    
   109   55   56 2    
   110   55   57 1    
   111   57   58 1    
   112   57   59 1    
   113   57  118 1    
   114   58  119 1    
   115   58  120 1    
   116   58  121 1    
   117   59   60 am   BACKBONE|DICT|INTERRES
   118   59  122 1    
   119   60   61 2    
   120   60   62 1    
   121   62   63 1    
   122   62   64 1    
   123   62  123 1    
   124   63  124 1    
   125   63  125 1    
   126   63  126 1    
   127   64   65 am   BACKBONE|DICT|INTERRES
   128   64  127 1    
   129   65   66 2    
@<TRIPOS>SUBSTRUCTURE
     1 UNK         1 GROUP             0       ****    0 ROOT    
