@<TRIPOS>MOLECULE
3R134
127   129    1
SMALL
USER_CHARGES


@<TRIPOS>ATOM
      1 CA         33.3471  -46.5744  -51.9018 C.3       0 UNK        -0.1968 
      2 C          34.1465  -46.1312  -53.1144 C.2       0 UNK         0.4852 
      3 O          35.3108  -46.5083  -53.2491 O.2       0 UNK        -0.5359 
      4 N          33.5272  -45.3310  -53.9917 N.am      1 UNK        -0.4300 
      5 CA         34.1429  -44.8193  -55.2237 C.3       1 UNK         0.0863 
      6 C6         33.5944  -43.4239  -55.6060 C.3       11 UNK        -0.0953 
      7 S7         33.9452  -42.2039  -54.2911 S.3       11 UNK        -0.2369 
      8 C8         32.3878  -41.2709  -54.1668 C.3       11 UNK         0.0226 
      9 C9         31.2158  -42.1187  -53.6894 C.ar      11 UNK        -0.0699 
     10 C10        31.1345  -42.5460  -52.3594 C.ar      11 UNK        -0.0804 
     11 C11        30.0248  -43.2744  -51.9126 C.ar      11 UNK        -0.0871 
     12 C12        29.0000  -43.5834  -52.8126 C.ar      11 UNK        -0.1008 
     13 C13        29.0813  -43.1779  -54.1472 C.ar      11 UNK        -0.0735 
     14 C14        30.1846  -42.4364  -54.5759 C.ar      11 UNK        -0.0945 
     15 C15        27.9703  -43.5268  -55.1254 C.3       11 UNK         0.0169 
     16 S16        28.0794  -45.2507  -55.6960 S.3       11 UNK        -0.2669 
     17 C17        29.6434  -45.2522  -56.6385 C.3       11 UNK        -0.0850 
     18 CA         29.4578  -44.8802  -58.1336 C.3       10 UNK         0.0855 
     19 C          30.8303  -44.6179  -58.8230 C.2       10 UNK         0.5543 
     20 N          31.2045  -45.3377  -59.8732 N.am      10 UNK        -0.7343 
     21 O          31.5652  -43.7309  -58.3980 O.2       10 UNK        -0.5027 
     22 N          28.5701  -45.8393  -58.8107 N.am      10 UNK        -0.4495 
     23 C          27.9643  -45.6479  -59.9923 C.2       10 UNK         0.4903 
     24 O          28.1384  -44.6595  -60.7050 O.2       10 UNK        -0.4860 
     25 CA         26.9692  -46.7340  -60.4467 C.3       9 UNK         0.0227 
     26 CB         27.6852  -47.8033  -61.2870 C.3       9 UNK        -0.1964 
     27 N          26.3081  -47.3740  -59.3080 N.am      9 UNK        -0.4231 
     28 C          25.4409  -46.7608  -58.4942 C.2       9 UNK         0.5014 
     29 O          24.9110  -45.6826  -58.7694 O.2       9 UNK        -0.5270 
     30 CA         25.1165  -47.4196  -57.1351 C.3       8 UNK         0.0284 
     31 CB         23.5989  -47.6272  -56.9820 C.3       8 UNK        -0.1977 
     32 N          25.7874  -48.6808  -56.7814 N.am      8 UNK        -0.4342 
     33 C          27.0925  -48.9877  -56.7801 C.2       8 UNK         0.5039 
     34 O          27.9780  -48.2946  -57.2833 O.2       8 UNK        -0.5547 
     35 CA         27.4522  -50.2952  -56.0566 C.3       7 UNK         0.0281 
     36 CB         28.8634  -50.8061  -56.3991 C.3       7 UNK        -0.1963 
     37 N          27.3436  -50.0908  -54.6110 N.am      7 UNK        -0.4444 
     38 C          26.1941  -50.1477  -53.9206 C.2       7 UNK         0.5104 
     39 O          25.1135  -50.4378  -54.4368 O.2       7 UNK        -0.5100 
     40 CA         26.2365  -49.8273  -52.4142 C.3       6 UNK         0.0396 
     41 CB         26.1887  -51.1258  -51.5931 C.3       6 UNK        -0.1801 
     42 N          27.4139  -49.0550  -52.0142 N.am      6 UNK        -0.4747 
     43 C          27.6100  -47.7509  -52.2653 C.2       6 UNK         0.5012 
     44 O          26.7637  -47.0259  -52.7869 O.2       6 UNK        -0.5003 
     45 CA         28.9859  -47.1608  -51.8740 C.3       5 UNK         0.0782 
     46 C46        28.8608  -46.3257  -50.5756 C.3       11 UNK        -0.0868 
     47 S47        30.3905  -45.4176  -50.1656 S.3       11 UNK        -0.2515 
     48 C48        29.9120  -43.6821  -50.4489 C.3       11 UNK         0.0199 
     49 N          30.0284  -48.1968  -51.7684 N.am      5 UNK        -0.4607 
     50 C          30.4853  -48.9026  -52.8095 C.2       4 UNK         0.5031 
     51 O          30.1239  -48.7057  -53.9720 O.2       4 UNK        -0.5119 
     52 CA         31.4454  -50.0586  -52.5050 C.3       4 UNK         0.0263 
     53 CB         30.6973  -51.2229  -51.8245 C.3       4 UNK        -0.1967 
     54 N          32.0012  -50.4907  -53.7808 N.am      4 UNK        -0.4237 
     55 C          33.0419  -51.3028  -53.9946 C.2       3 UNK         0.4908 
     56 O          33.6876  -51.8489  -53.0996 O.2       3 UNK        -0.5102 
     57 CA         33.4316  -51.5380  -55.4676 C.3       3 UNK         0.0241 
     58 CB         32.7330  -52.7945  -56.0129 C.3       3 UNK        -0.1971 
     59 N          33.1101  -50.3924  -56.3281 N.am      3 UNK        -0.4139 
     60 C          33.7459  -49.2130  -56.2796 C.2       2 UNK         0.5016 
     61 O          34.7524  -49.0214  -55.5949 O.2       2 UNK        -0.5319 
     62 CA         33.1582  -48.0473  -57.0986 C.3       2 UNK         0.0286 
     63 CB         31.7179  -48.2998  -57.5898 C.3       2 UNK        -0.1963 
     64 N          33.1818  -46.8458  -56.2600 N.am      2 UNK        -0.4790 
     65 C          34.0450  -45.8275  -56.3920 C.2       1 UNK         0.5024 
     66 O          34.7813  -45.6825  -57.3691 O.2       1 UNK        -0.4888 
     67 H67        33.5998  -45.9608  -51.0375 H         1 UNK         0.0892 
     68 H68        32.2779  -46.4864  -52.0851 H         1 UNK         0.0892 
     69 H69        33.5667  -47.6137  -51.6605 H         1 UNK         0.0892 
     70 H70        32.5904  -45.0043  -53.8008 H         1 UNK         0.3107 
     71 H71        35.2127  -44.6941  -55.0405 H         1 UNK         0.0773 
     72 H72        32.5239  -43.4731  -55.8032 H         1 UNK         0.0680 
     73 H73        34.0579  -43.0645  -56.5267 H         1 UNK         0.0680 
     74 H74        32.1715  -40.8173  -55.1354 H         1 UNK         0.0650 
     75 H75        32.5330  -40.4435  -53.4710 H         1 UNK         0.0650 
     76 H76        31.9282  -42.2924  -51.6697 H         1 UNK         0.1397 
     77 H77        28.1344  -44.1393  -52.4803 H         1 UNK         0.1363 
     78 H78        30.2409  -42.1068  -55.6047 H         1 UNK         0.1355 
     79 H79        27.9871  -42.8593  -55.9883 H         1 UNK         0.0707 
     80 H80        27.0028  -43.3779  -54.6439 H         1 UNK         0.0707 
     81 H81        30.0687  -46.2513  -56.5512 H         1 UNK         0.1034 
     82 H82        30.3601  -44.5931  -56.1522 H         1 UNK         0.1034 
     83 H83        28.9450  -43.9171  -58.1626 H         1 UNK         0.0482 
     84 H84        32.0929  -45.1488  -60.3089 H         1 UNK         0.3460 
     85 H85        30.5951  -46.0461  -60.2472 H         1 UNK         0.3460 
     86 H86        28.3606  -46.6840  -58.2831 H         1 UNK         0.2989 
     87 H87        26.2071  -46.2586  -61.0676 H         1 UNK         0.0559 
     88 H88        28.4525  -48.3238  -60.7121 H         1 UNK         0.0848 
     89 H89        28.1737  -47.3552  -62.1534 H         1 UNK         0.0848 
     90 H90        26.9835  -48.5485  -61.6620 H         1 UNK         0.0848 
     91 H91        26.7569  -48.2009  -58.9340 H         1 UNK         0.3144 
     92 H92        25.4280  -46.6959  -56.3797 H         1 UNK         0.0727 
     93 H93        23.3420  -47.9602  -55.9759 H         1 UNK         0.0790 
     94 H94        23.2234  -48.3686  -57.6883 H         1 UNK         0.0790 
     95 H95        23.0500  -46.7011  -57.1587 H         1 UNK         0.0790 
     96 H96        25.1945  -49.3472  -56.2993 H         1 UNK         0.3215 
     97 H97        26.7425  -51.0630  -56.3733 H         1 UNK         0.0863 
     98 H98        29.6330  -50.1035  -56.0888 H         1 UNK         0.0808 
     99 H99        28.9732  -50.9556  -57.4738 H         1 UNK         0.0808 
    100 H100       29.0672  -51.7606  -55.9140 H         1 UNK         0.0808 
    101 H101       28.1753  -49.7469  -54.1477 H         1 UNK         0.3118 
    102 H102       25.3452  -49.2419  -52.1784 H         1 UNK         0.0546 
    103 H103       26.1449  -50.9189  -50.5237 H         1 UNK         0.0828 
    104 H104       27.0594  -51.7559  -51.7795 H         1 UNK         0.0828 
    105 H105       25.3036  -51.7127  -51.8429 H         1 UNK         0.0828 
    106 H106       28.1535  -49.5639  -51.5533 H         1 UNK         0.3005 
    107 H107       29.2696  -46.4892  -52.6884 H         1 UNK         0.1257 
    108 H108       28.6192  -46.9738  -49.7311 H         1 UNK         0.0775 
    109 H109       28.0334  -45.6178  -50.6473 H         1 UNK         0.0775 
    110 H110       28.8988  -43.5058  -50.0848 H         1 UNK         0.0840 
    111 H111       30.5570  -43.0479  -49.8388 H         1 UNK         0.0840 
    112 H112       30.3724  -48.3919  -50.8388 H         1 UNK         0.2987 
    113 H113       32.2515  -49.6984  -51.8636 H         1 UNK         0.0785 
    114 H114       31.3650  -52.0585  -51.6150 H         1 UNK         0.0798 
    115 H115       30.2676  -50.9162  -50.8703 H         1 UNK         0.0798 
    116 H116       29.8839  -51.5978  -52.4475 H         1 UNK         0.0798 
    117 H117       31.5395  -50.0561  -54.5705 H         1 UNK         0.3079 
    118 H118       34.5109  -51.7024  -55.5025 H         1 UNK         0.0794 
    119 H119       33.0499  -53.0141  -57.0327 H         1 UNK         0.0786 
    120 H120       31.6474  -52.6878  -56.0129 H         1 UNK         0.0786 
    121 H121       32.9740  -53.6682  -55.4056 H         1 UNK         0.0786 
    122 H122       32.3096  -50.4864  -56.9361 H         1 UNK         0.3032 
    123 H123       33.8001  -47.9214  -57.9734 H         1 UNK         0.1094 
    124 H124       31.0228  -48.4310  -56.7608 H         1 UNK         0.0794 
    125 H125       31.3596  -47.4639  -58.1852 H         1 UNK         0.0794 
    126 H126       31.6529  -49.1785  -58.2323 H         1 UNK         0.0794 
    127 H127       32.6688  -46.9055  -55.3929 H         1 UNK         0.3016 
@<TRIPOS>BOND
     1    1    2 1    
     2    1   67 1    
     3    1   68 1    
     4    1   69 1    
     5    2    3 2    
     6    2    4 am   BACKBONE|DICT|INTERRES
     7    4    5 1    
     8    4   70 1    
     9    5    6 1    
    10    5   65 1    
    11    5   71 1    
    12    6    7 1    
    13    6   72 1    
    14    6   73 1    
    15    7    8 1    
    16    8    9 1    
    17    8   74 1    
    18    8   75 1    
    19    9   10 ar   
    20    9   14 ar   
    21   10   11 ar   
    22   10   76 1    
    23   11   12 ar   
    24   11   48 1    
    25   12   13 ar   
    26   12   77 1    
    27   13   14 ar   
    28   13   15 1    
    29   14   78 1    
    30   15   16 1    
    31   15   79 1    
    32   15   80 1    
    33   16   17 1    
    34   17   18 1    
    35   17   81 1    
    36   17   82 1    
    37   18   19 1    
    38   18   22 1    
    39   18   83 1    
    40   19   20 am   BACKBONE|DICT|INTERRES
    41   19   21 2    
    42   20   84 1    
    43   20   85 1    
    44   22   23 am   BACKBONE|DICT|INTERRES
    45   22   86 1    
    46   23   24 2    
    47   23   25 1    
    48   25   26 1    
    49   25   27 1    
    50   25   87 1    
    51   26   88 1    
    52   26   89 1    
    53   26   90 1    
    54   27   28 am   BACKBONE|DICT|INTERRES
    55   27   91 1    
    56   28   29 2    
    57   28   30 1    
    58   30   31 1    
    59   30   32 1    
    60   30   92 1    
    61   31   93 1    
    62   31   94 1    
    63   31   95 1    
    64   32   33 am   BACKBONE|DICT|INTERRES
    65   32   96 1    
    66   33   34 2    
    67   33   35 1    
    68   35   36 1    
    69   35   37 1    
    70   35   97 1    
    71   36   98 1    
    72   36   99 1    
    73   36  100 1    
    74   37   38 am   BACKBONE|DICT|INTERRES
    75   37  101 1    
    76   38   39 2    
    77   38   40 1    
    78   40   41 1    
    79   40   42 1    
    80   40  102 1    
    81   41  103 1    
    82   41  104 1    
    83   41  105 1    
    84   42   43 am   BACKBONE|DICT|INTERRES
    85   42  106 1    
    86   43   44 2    
    87   43   45 1    
    88   45   46 1    
    89   45   49 1    
    90   45  107 1    
    91   46   47 1    
    92   46  108 1    
    93   46  109 1    
    94   47   48 1    
    95   48  110 1    
    96   48  111 1    
    97   49   50 am   BACKBONE|DICT|INTERRES
    98   49  112 1    
    99   50   51 2    
   100   50   52 1    
   101   52   53 1    
   102   52   54 1    
   103   52  113 1    
   104   53  114 1    
   105   53  115 1    
   106   53  116 1    
   107   54   55 am   BACKBONE|DICT|INTERRES
   108   54  117 1    
   109   55   56 2    
   110   55   57 1    
   111   57   58 1    
   112   57   59 1    
   113   57  118 1    
   114   58  119 1    
   115   58  120 1    
   116   58  121 1    
   117   59   60 am   BACKBONE|DICT|INTERRES
   118   59  122 1    
   119   60   61 2    
   120   60   62 1    
   121   62   63 1    
   122   62   64 1    
   123   62  123 1    
   124   63  124 1    
   125   63  125 1    
   126   63  126 1    
   127   64   65 am   BACKBONE|DICT|INTERRES
   128   64  127 1    
   129   65   66 2    
@<TRIPOS>SUBSTRUCTURE
     1 UNK         1 GROUP             0       ****    0 ROOT    
