@<TRIPOS>MOLECULE
3R134
127   129    1
SMALL
USER_CHARGES


@<TRIPOS>ATOM
      1 CA         35.0876  -44.3938  -58.7822 C.3       0 UNK        -0.1968 
      2 C          34.9847  -45.0463  -57.4117 C.2       0 UNK         0.4852 
      3 O          35.9381  -45.6885  -56.9699 O.2       0 UNK        -0.5359 
      4 N          33.8259  -44.9077  -56.7518 N.am      1 UNK        -0.4300 
      5 CA         33.4809  -45.3745  -55.3946 C.3       1 UNK         0.0863 
      6 C6         34.3754  -44.7853  -54.2695 C.3       11 UNK        -0.0953 
      7 S7         34.4586  -42.9601  -54.3224 S.3       11 UNK        -0.2369 
      8 C8         33.4461  -42.4669  -52.8842 C.3       11 UNK         0.0226 
      9 C9         31.9800  -42.8916  -52.9590 C.ar      11 UNK        -0.0699 
     10 C10        31.3259  -43.3000  -51.7928 C.ar      11 UNK        -0.0804 
     11 C11        29.9816  -43.6830  -51.8226 C.ar      11 UNK        -0.0871 
     12 C12        29.2921  -43.6813  -53.0391 C.ar      11 UNK        -0.1008 
     13 C13        29.9342  -43.2816  -54.2138 C.ar      11 UNK        -0.0735 
     14 C14        31.2654  -42.8581  -54.1621 C.ar      11 UNK        -0.0945 
     15 C15        29.2080  -43.3443  -55.5468 C.3       11 UNK         0.0169 
     16 S16        28.1594  -41.8852  -55.8249 S.3       11 UNK        -0.2669 
     17 C17        27.9357  -41.9629  -57.6371 C.3       11 UNK        -0.0850 
     18 CA         26.6231  -42.6563  -58.0903 C.3       10 UNK         0.0855 
     19 C          26.4914  -42.5767  -59.6410 C.2       10 UNK         0.5543 
     20 N          26.6777  -43.6646  -60.3816 N.am      10 UNK        -0.7343 
     21 O          26.2180  -41.5060  -60.1773 O.2       10 UNK        -0.5027 
     22 N          26.5063  -44.0202  -57.5517 N.am      10 UNK        -0.4495 
     23 C          25.3976  -44.7700  -57.5870 C.2       10 UNK         0.4903 
     24 O          24.2977  -44.3379  -57.9354 O.2       10 UNK        -0.4860 
     25 CA         25.5331  -46.2500  -57.1687 C.3       9 UNK         0.0227 
     26 CB         24.6399  -47.1735  -58.0227 C.3       9 UNK        -0.1964 
     27 N          26.9105  -46.7653  -57.1373 N.am      9 UNK        -0.4231 
     28 C          27.7919  -46.8367  -58.1482 C.2       9 UNK         0.5014 
     29 O          27.5858  -46.3836  -59.2753 O.2       9 UNK        -0.5270 
     30 CA         29.1394  -47.5101  -57.8388 C.3       8 UNK         0.0284 
     31 CB         30.0849  -46.5454  -57.1071 C.3       8 UNK        -0.1977 
     32 N          28.9740  -48.7345  -57.0521 N.am      8 UNK        -0.4342 
     33 C          28.5602  -49.9035  -57.5630 C.2       8 UNK         0.5039 
     34 O          28.3786  -50.1025  -58.7647 O.2       8 UNK        -0.5547 
     35 CA         28.2751  -51.0373  -56.5652 C.3       7 UNK         0.0281 
     36 CB         29.5454  -51.8504  -56.2636 C.3       7 UNK        -0.1963 
     37 N          27.6925  -50.5251  -55.3221 N.am      7 UNK        -0.4444 
     38 C          26.4017  -50.1794  -55.1980 C.2       7 UNK         0.5104 
     39 O          25.5683  -50.3323  -56.0910 O.2       7 UNK        -0.5100 
     40 CA         25.9444  -49.5620  -53.8635 C.3       6 UNK         0.0396 
     41 CB         25.2371  -50.6200  -53.0016 C.3       6 UNK        -0.1801 
     42 N          27.0205  -48.9517  -53.0806 N.am      6 UNK        -0.4747 
     43 C          27.6890  -47.8396  -53.4189 C.2       6 UNK         0.5012 
     44 O          27.4892  -47.2056  -54.4544 O.2       6 UNK        -0.5003 
     45 CA         28.8049  -47.3933  -52.4545 C.3       5 UNK         0.0782 
     46 C46        28.1887  -46.5703  -51.2975 C.3       11 UNK        -0.0868 
     47 S47        29.4477  -45.8577  -50.1871 S.3       11 UNK        -0.2515 
     48 C48        29.2791  -44.0790  -50.5326 C.3       11 UNK         0.0199 
     49 N          29.6131  -48.5147  -51.9539 N.am      5 UNK        -0.4607 
     50 C          30.2225  -49.4404  -52.7042 C.2       4 UNK         0.5031 
     51 O          30.1213  -49.5159  -53.9324 O.2       4 UNK        -0.5119 
     52 CA         31.0270  -50.5012  -51.9507 C.3       4 UNK         0.0263 
     53 CB         30.1108  -51.6459  -51.4794 C.3       4 UNK        -0.1967 
     54 N          32.0409  -51.0094  -52.8633 N.am      4 UNK        -0.4237 
     55 C          33.1659  -51.6503  -52.5292 C.2       3 UNK         0.4908 
     56 O          33.4716  -51.9439  -51.3727 O.2       3 UNK        -0.5102 
     57 CA         34.1155  -52.0327  -53.6798 C.3       3 UNK         0.0241 
     58 CB         33.8928  -53.4971  -54.0927 C.3       3 UNK        -0.1971 
     59 N          33.9635  -51.1723  -54.8579 N.am      3 UNK        -0.4139 
     60 C          34.3775  -49.8994  -54.9297 C.2       2 UNK         0.5016 
     61 O          35.0286  -49.3473  -54.0389 O.2       2 UNK        -0.5319 
     62 CA         34.0340  -49.1354  -56.2265 C.3       2 UNK         0.0286 
     63 CB         32.6810  -49.5565  -56.8478 C.3       2 UNK        -0.1963 
     64 N          34.0771  -47.6765  -56.0688 N.am      2 UNK        -0.4790 
     65 C          33.3327  -46.9071  -55.2606 C.2       1 UNK         0.5024 
     66 O          32.5023  -47.3496  -54.4670 O.2       1 UNK        -0.4888 
     67 H67        35.9062  -43.6746  -58.7928 H         1 UNK         0.0892 
     68 H68        35.2864  -45.1480  -59.5432 H         1 UNK         0.0892 
     69 H69        34.1726  -43.8688  -59.0557 H         1 UNK         0.0892 
     70 H70        33.0869  -44.3925  -57.2080 H         1 UNK         0.3107 
     71 H71        32.4726  -44.9968  -55.2305 H         1 UNK         0.0773 
     72 H72        34.0078  -45.0951  -53.2893 H         1 UNK         0.0680 
     73 H73        35.3922  -45.1735  -54.3461 H         1 UNK         0.0680 
     74 H74        33.4846  -41.3809  -52.7917 H         1 UNK         0.0650 
     75 H75        33.9147  -42.8696  -51.9849 H         1 UNK         0.0650 
     76 H76        31.8618  -43.3124  -50.8533 H         1 UNK         0.1397 
     77 H77        28.2561  -43.9885  -53.0770 H         1 UNK         0.1363 
     78 H78        31.7548  -42.5299  -55.0685 H         1 UNK         0.1355 
     79 H79        29.9369  -43.4369  -56.3529 H         1 UNK         0.0707 
     80 H80        28.5895  -44.2418  -55.5817 H         1 UNK         0.0707 
     81 H81        27.9514  -40.9331  -57.9999 H         1 UNK         0.1034 
     82 H82        28.8011  -42.4435  -58.0969 H         1 UNK         0.1034 
     83 H83        25.7901  -42.0811  -57.6813 H         1 UNK         0.0482 
     84 H84        26.5885  -43.6002  -61.3830 H         1 UNK         0.3460 
     85 H85        26.9160  -44.5523  -59.9527 H         1 UNK         0.3460 
     86 H86        27.3631  -44.4595  -57.2580 H         1 UNK         0.2989 
     87 H87        25.1746  -46.3037  -56.1398 H         1 UNK         0.0559 
     88 H88        23.5888  -46.8950  -57.9391 H         1 UNK         0.0848 
     89 H89        24.7229  -48.2121  -57.7023 H         1 UNK         0.0848 
     90 H90        24.9060  -47.1270  -59.0793 H         1 UNK         0.0848 
     91 H91        27.2116  -47.0866  -56.2173 H         1 UNK         0.3144 
     92 H92        29.6028  -47.7685  -58.7936 H         1 UNK         0.0727 
     93 H93        29.7563  -46.3420  -56.0873 H         1 UNK         0.0790 
     94 H94        30.1598  -45.5933  -57.6335 H         1 UNK         0.0790 
     95 H95        31.0895  -46.9608  -57.0560 H         1 UNK         0.0790 
     96 H96        29.1173  -48.6697  -56.0526 H         1 UNK         0.3215 
     97 H97        27.5562  -51.7143  -57.0330 H         1 UNK         0.0863 
     98 H98        29.3372  -52.6710  -55.5770 H         1 UNK         0.0808 
     99 H99        30.3310  -51.2387  -55.8244 H         1 UNK         0.0808 
    100 H100       29.9501  -52.2872  -57.1775 H         1 UNK         0.0808 
    101 H101       28.3358  -50.3234  -54.5648 H         1 UNK         0.3118 
    102 H102       25.2213  -48.7789  -54.1017 H         1 UNK         0.0546 
    103 H103       25.9144  -51.4247  -52.7126 H         1 UNK         0.0828 
    104 H104       24.4061  -51.0736  -53.5438 H         1 UNK         0.0828 
    105 H105       24.8255  -50.1824  -52.0921 H         1 UNK         0.0828 
    106 H106       27.2735  -49.4143  -52.2192 H         1 UNK         0.3005 
    107 H107       29.4766  -46.7466  -53.0248 H         1 UNK         0.1257 
    108 H108       27.5319  -47.1975  -50.6914 H         1 UNK         0.0775 
    109 H109       27.5545  -45.7715  -51.6855 H         1 UNK         0.0775 
    110 H110       28.2251  -43.7987  -50.5655 H         1 UNK         0.0840 
    111 H111       29.7067  -43.5222  -49.6973 H         1 UNK         0.0840 
    112 H112       29.7514  -48.5327  -50.9537 H         1 UNK         0.2987 
    113 H113       31.5173  -50.0340  -51.0939 H         1 UNK         0.0785 
    114 H114       29.3356  -51.2780  -50.8062 H         1 UNK         0.0798 
    115 H115       30.6714  -52.4075  -50.9374 H         1 UNK         0.0798 
    116 H116       29.6124  -52.1330  -52.3188 H         1 UNK         0.0798 
    117 H117       31.8774  -50.7525  -53.8286 H         1 UNK         0.3079 
    118 H118       35.1382  -51.9326  -53.3096 H         1 UNK         0.0794 
    119 H119       34.6031  -53.8062  -54.8599 H         1 UNK         0.0786 
    120 H120       32.8860  -53.6605  -54.4795 H         1 UNK         0.0786 
    121 H121       34.0269  -54.1664  -53.2416 H         1 UNK         0.0786 
    122 H122       33.4698  -51.5657  -55.6459 H         1 UNK         0.3032 
    123 H123       34.8221  -49.3856  -56.9386 H         1 UNK         0.1094 
    124 H124       31.8543  -49.4043  -56.1532 H         1 UNK         0.0794 
    125 H125       32.4644  -48.9766  -57.7451 H         1 UNK         0.0794 
    126 H126       32.6765  -50.6042  -57.1490 H         1 UNK         0.0794 
    127 H127       34.7939  -47.1915  -56.6022 H         1 UNK         0.3016 
@<TRIPOS>BOND
     1    1    2 1    
     2    1   67 1    
     3    1   68 1    
     4    1   69 1    
     5    2    3 2    
     6    2    4 am   BACKBONE|DICT|INTERRES
     7    4    5 1    
     8    4   70 1    
     9    5    6 1    
    10    5   65 1    
    11    5   71 1    
    12    6    7 1    
    13    6   72 1    
    14    6   73 1    
    15    7    8 1    
    16    8    9 1    
    17    8   74 1    
    18    8   75 1    
    19    9   10 ar   
    20    9   14 ar   
    21   10   11 ar   
    22   10   76 1    
    23   11   12 ar   
    24   11   48 1    
    25   12   13 ar   
    26   12   77 1    
    27   13   14 ar   
    28   13   15 1    
    29   14   78 1    
    30   15   16 1    
    31   15   79 1    
    32   15   80 1    
    33   16   17 1    
    34   17   18 1    
    35   17   81 1    
    36   17   82 1    
    37   18   19 1    
    38   18   22 1    
    39   18   83 1    
    40   19   20 am   BACKBONE|DICT|INTERRES
    41   19   21 2    
    42   20   84 1    
    43   20   85 1    
    44   22   23 am   BACKBONE|DICT|INTERRES
    45   22   86 1    
    46   23   24 2    
    47   23   25 1    
    48   25   26 1    
    49   25   27 1    
    50   25   87 1    
    51   26   88 1    
    52   26   89 1    
    53   26   90 1    
    54   27   28 am   BACKBONE|DICT|INTERRES
    55   27   91 1    
    56   28   29 2    
    57   28   30 1    
    58   30   31 1    
    59   30   32 1    
    60   30   92 1    
    61   31   93 1    
    62   31   94 1    
    63   31   95 1    
    64   32   33 am   BACKBONE|DICT|INTERRES
    65   32   96 1    
    66   33   34 2    
    67   33   35 1    
    68   35   36 1    
    69   35   37 1    
    70   35   97 1    
    71   36   98 1    
    72   36   99 1    
    73   36  100 1    
    74   37   38 am   BACKBONE|DICT|INTERRES
    75   37  101 1    
    76   38   39 2    
    77   38   40 1    
    78   40   41 1    
    79   40   42 1    
    80   40  102 1    
    81   41  103 1    
    82   41  104 1    
    83   41  105 1    
    84   42   43 am   BACKBONE|DICT|INTERRES
    85   42  106 1    
    86   43   44 2    
    87   43   45 1    
    88   45   46 1    
    89   45   49 1    
    90   45  107 1    
    91   46   47 1    
    92   46  108 1    
    93   46  109 1    
    94   47   48 1    
    95   48  110 1    
    96   48  111 1    
    97   49   50 am   BACKBONE|DICT|INTERRES
    98   49  112 1    
    99   50   51 2    
   100   50   52 1    
   101   52   53 1    
   102   52   54 1    
   103   52  113 1    
   104   53  114 1    
   105   53  115 1    
   106   53  116 1    
   107   54   55 am   BACKBONE|DICT|INTERRES
   108   54  117 1    
   109   55   56 2    
   110   55   57 1    
   111   57   58 1    
   112   57   59 1    
   113   57  118 1    
   114   58  119 1    
   115   58  120 1    
   116   58  121 1    
   117   59   60 am   BACKBONE|DICT|INTERRES
   118   59  122 1    
   119   60   61 2    
   120   60   62 1    
   121   62   63 1    
   122   62   64 1    
   123   62  123 1    
   124   63  124 1    
   125   63  125 1    
   126   63  126 1    
   127   64   65 am   BACKBONE|DICT|INTERRES
   128   64  127 1    
   129   65   66 2    
@<TRIPOS>SUBSTRUCTURE
     1 UNK         1 GROUP             0       ****    0 ROOT    
