@<TRIPOS>MOLECULE
3R134
127   129    1
SMALL
USER_CHARGES


@<TRIPOS>ATOM
      1 CA         32.3475  -43.7787  -47.3182 C.3       0 UNK        -0.1968 
      2 C          32.9279  -44.2384  -48.6478 C.2       0 UNK         0.4852 
      3 O          34.1487  -44.2334  -48.8161 O.2       0 UNK        -0.5359 
      4 N          32.0632  -44.6257  -49.5938 N.am      1 UNK        -0.4300 
      5 CA         32.4390  -45.1409  -50.9143 C.3       1 UNK         0.0863 
      6 C6         31.2392  -45.1653  -51.8941 C.3       11 UNK        -0.0953 
      7 S7         30.3782  -43.5675  -52.0623 S.3       11 UNK        -0.2369 
      8 C8         31.4344  -42.6845  -53.2553 C.3       11 UNK         0.0226 
      9 C9         31.5286  -43.3712  -54.6130 C.ar      11 UNK        -0.0699 
     10 C10        32.7802  -43.7053  -55.1404 C.ar      11 UNK        -0.0804 
     11 C11        32.8912  -44.2824  -56.4094 C.ar      11 UNK        -0.0871 
     12 C12        31.7302  -44.5195  -57.1530 C.ar      11 UNK        -0.1008 
     13 C13        30.4710  -44.2206  -56.6265 C.ar      11 UNK        -0.0735 
     14 C14        30.3759  -43.6402  -55.3584 C.ar      11 UNK        -0.0945 
     15 C15        29.2153  -44.5486  -57.4188 C.3       11 UNK         0.0169 
     16 S16        28.4453  -43.0528  -58.1024 S.3       11 UNK        -0.2669 
     17 C17        27.0848  -43.7811  -59.0751 C.3       11 UNK        -0.0850 
     18 CA         25.7505  -43.8464  -58.2875 C.3       10 UNK         0.0855 
     19 C          24.5705  -44.1198  -59.2561 C.2       10 UNK         0.5543 
     20 N          24.2684  -45.3701  -59.5813 N.am      10 UNK        -0.7343 
     21 O          23.9226  -43.1843  -59.7189 O.2       10 UNK        -0.5027 
     22 N          25.8051  -44.8429  -57.2063 N.am      10 UNK        -0.4495 
     23 C          25.4771  -44.6146  -55.9272 C.2       10 UNK         0.4903 
     24 O          25.1552  -43.5079  -55.4915 O.2       10 UNK        -0.4860 
     25 CA         25.5268  -45.8248  -54.9655 C.3       9 UNK         0.0227 
     26 CB         24.7108  -45.6027  -53.6747 C.3       9 UNK        -0.1964 
     27 N          25.1574  -47.0952  -55.6019 N.am      9 UNK        -0.4231 
     28 C          24.0086  -47.3878  -56.2353 C.2       9 UNK         0.5014 
     29 O          23.0222  -46.6495  -56.2429 O.2       9 UNK        -0.5270 
     30 CA         23.9691  -48.7217  -57.0171 C.3       8 UNK         0.0284 
     31 CB         22.9900  -48.6836  -58.2092 C.3       8 UNK        -0.1977 
     32 N          25.2909  -49.1933  -57.4591 N.am      8 UNK        -0.4342 
     33 C          26.1941  -48.5214  -58.1893 C.2       8 UNK         0.5039 
     34 O          26.0170  -47.3874  -58.6418 O.2       8 UNK        -0.5547 
     35 CA         27.5683  -49.1922  -58.3463 C.3       7 UNK         0.0281 
     36 CB         28.0840  -49.0696  -59.7900 C.3       7 UNK        -0.1963 
     37 N          28.5613  -48.6114  -57.4375 N.am      7 UNK        -0.4444 
     38 C          28.4792  -48.5086  -56.1053 C.2       7 UNK         0.5104 
     39 O          27.5120  -48.9146  -55.4572 O.2       7 UNK        -0.5100 
     40 CA         29.6492  -47.8158  -55.3696 C.3       6 UNK         0.0396 
     41 CB         29.5266  -47.9672  -53.8425 C.3       6 UNK        -0.1801 
     42 N          30.9960  -48.2453  -55.7638 N.am      6 UNK        -0.4747 
     43 C          31.6103  -48.0705  -56.9440 C.2       6 UNK         0.5012 
     44 O          31.0619  -47.5969  -57.9399 O.2       6 UNK        -0.5003 
     45 CA         33.0816  -48.5189  -57.0323 C.3       5 UNK         0.0782 
     46 C46        34.0559  -47.4044  -56.5712 C.3       11 UNK        -0.0868 
     47 S47        34.3738  -46.1801  -57.8847 S.3       11 UNK        -0.2515 
     48 C48        34.2742  -44.6004  -56.9743 C.3       11 UNK         0.0199 
     49 N          33.2939  -49.7496  -56.2686 N.am      5 UNK        -0.4607 
     50 C          33.1949  -50.9875  -56.7699 C.2       4 UNK         0.5031 
     51 O          32.9320  -51.2275  -57.9484 O.2       4 UNK        -0.5119 
     52 CA         33.4506  -52.1638  -55.8086 C.3       4 UNK         0.0263 
     53 CB         34.8914  -52.6770  -55.9655 C.3       4 UNK        -0.1967 
     54 N          33.2138  -51.8259  -54.4030 N.am      4 UNK        -0.4237 
     55 C          32.0005  -51.6736  -53.8550 C.2       3 UNK         0.4908 
     56 O          30.9458  -51.8698  -54.4587 O.2       3 UNK        -0.5102 
     57 CA         31.9521  -51.1988  -52.3909 C.3       3 UNK         0.0241 
     58 CB         31.9013  -52.4043  -51.4383 C.3       3 UNK        -0.1971 
     59 N          33.0500  -50.3069  -51.9899 N.am      3 UNK        -0.4139 
     60 C          33.3357  -49.1329  -52.5689 C.2       2 UNK         0.5016 
     61 O          32.7866  -48.7214  -53.5926 O.2       2 UNK        -0.5319 
     62 CA         34.4292  -48.2710  -51.9214 C.3       2 UNK         0.0286 
     63 CB         35.6865  -48.2424  -52.8055 C.3       2 UNK        -0.1963 
     64 N          33.9330  -46.9054  -51.7391 N.am      2 UNK        -0.4790 
     65 C          33.0377  -46.5583  -50.8048 C.2       1 UNK         0.5024 
     66 O          32.6453  -47.3256  -49.9210 O.2       1 UNK        -0.4888 
     67 H67        31.2585  -43.8233  -47.3113 H         1 UNK         0.0892 
     68 H68        32.7176  -44.4085  -46.5098 H         1 UNK         0.0892 
     69 H69        32.6455  -42.7507  -47.1140 H         1 UNK         0.0892 
     70 H70        31.0727  -44.6187  -49.3981 H         1 UNK         0.3107 
     71 H71        33.2050  -44.4791  -51.3241 H         1 UNK         0.0773 
     72 H72        31.5585  -45.4985  -52.8831 H         1 UNK         0.0680 
     73 H73        30.4948  -45.8895  -51.5576 H         1 UNK         0.0680 
     74 H74        32.4234  -42.5527  -52.8141 H         1 UNK         0.0650 
     75 H75        31.0298  -41.6821  -53.4002 H         1 UNK         0.0650 
     76 H76        33.6740  -43.4957  -54.5687 H         1 UNK         0.1397 
     77 H77        31.8038  -44.9580  -58.1388 H         1 UNK         0.1363 
     78 H78        29.4039  -43.3919  -54.9543 H         1 UNK         0.1355 
     79 H79        28.5015  -45.0548  -56.7699 H         1 UNK         0.0707 
     80 H80        29.4449  -45.2440  -58.2279 H         1 UNK         0.0707 
     81 H81        26.9706  -43.1585  -59.9649 H         1 UNK         0.1034 
     82 H82        27.3688  -44.7704  -59.4400 H         1 UNK         0.1034 
     83 H83        25.5738  -42.8551  -57.8657 H         1 UNK         0.0482 
     84 H84        24.8380  -46.1434  -59.2435 H         1 UNK         0.3460 
     85 H85        23.5007  -45.5449  -60.2087 H         1 UNK         0.3460 
     86 H86        25.9839  -45.7956  -57.5089 H         1 UNK         0.2989 
     87 H87        26.5734  -45.9308  -54.6760 H         1 UNK         0.0559 
     88 H88        25.0764  -44.7353  -53.1239 H         1 UNK         0.0848 
     89 H89        23.6554  -45.4306  -53.8884 H         1 UNK         0.0848 
     90 H90        24.7826  -46.4612  -53.0070 H         1 UNK         0.0848 
     91 H91        25.8950  -47.7948  -55.6319 H         1 UNK         0.3144 
     92 H92        23.5997  -49.4669  -56.3112 H         1 UNK         0.0727 
     93 H93        22.9430  -49.6487  -58.7135 H         1 UNK         0.0790 
     94 H94        23.2800  -47.9359  -58.9468 H         1 UNK         0.0790 
     95 H95        21.9778  -48.4429  -57.8818 H         1 UNK         0.0790 
     96 H96        25.5741  -50.0867  -57.0784 H         1 UNK         0.3215 
     97 H97        27.4753  -50.2534  -58.1071 H         1 UNK         0.0863 
     98 H98        27.3669  -49.4873  -60.4979 H         1 UNK         0.0808 
     99 H99        28.2522  -48.0290  -60.0715 H         1 UNK         0.0808 
    100 H100       29.0230  -49.6073  -59.9231 H         1 UNK         0.0808 
    101 H101       29.4029  -48.2267  -57.8642 H         1 UNK         0.3118 
    102 H102       29.5770  -46.7529  -55.5946 H         1 UNK         0.0546 
    103 H103       28.6066  -47.5136  -53.4715 H         1 UNK         0.0828 
    104 H104       30.3551  -47.4860  -53.3275 H         1 UNK         0.0828 
    105 H105       29.5203  -49.0167  -53.5457 H         1 UNK         0.0828 
    106 H106       31.5665  -48.6110  -55.0049 H         1 UNK         0.3005 
    107 H107       33.2854  -48.7311  -58.0848 H         1 UNK         0.1257 
    108 H108       35.0243  -47.8377  -56.3166 H         1 UNK         0.0775 
    109 H109       33.7024  -46.9163  -55.6604 H         1 UNK         0.0775 
    110 H110       35.0208  -44.6161  -56.1786 H         1 UNK         0.0840 
    111 H111       34.5627  -43.7935  -57.6490 H         1 UNK         0.0840 
    112 H112       33.4347  -49.6297  -55.2723 H         1 UNK         0.2987 
    113 H113       32.7691  -52.9701  -56.0891 H         1 UNK         0.0785 
    114 H114       35.0918  -52.9669  -56.9981 H         1 UNK         0.0798 
    115 H115       35.0703  -53.5551  -55.3447 H         1 UNK         0.0798 
    116 H116       35.6243  -51.9163  -55.6932 H         1 UNK         0.0798 
    117 H117       34.0259  -51.6571  -53.8274 H         1 UNK         0.3079 
    118 H118       31.0247  -50.6349  -52.2714 H         1 UNK         0.0794 
    119 H119       31.0790  -53.0730  -51.6974 H         1 UNK         0.0786 
    120 H120       31.7449  -52.0894  -50.4063 H         1 UNK         0.0786 
    121 H121       32.8212  -52.9891  -51.4766 H         1 UNK         0.0786 
    122 H122       33.5582  -50.5722  -51.1581 H         1 UNK         0.3032 
    123 H123       34.6947  -48.6869  -50.9466 H         1 UNK         0.1094 
    124 H124       36.4782  -47.6488  -52.3481 H         1 UNK         0.0794 
    125 H125       36.0825  -49.2477  -52.9554 H         1 UNK         0.0794 
    126 H126       35.4810  -47.8227  -53.7909 H         1 UNK         0.0794 
    127 H127       34.1733  -46.2407  -52.4598 H         1 UNK         0.3016 
@<TRIPOS>BOND
     1    1    2 1    
     2    1   67 1    
     3    1   68 1    
     4    1   69 1    
     5    2    3 2    
     6    2    4 am   BACKBONE|DICT|INTERRES
     7    4    5 1    
     8    4   70 1    
     9    5    6 1    
    10    5   65 1    
    11    5   71 1    
    12    6    7 1    
    13    6   72 1    
    14    6   73 1    
    15    7    8 1    
    16    8    9 1    
    17    8   74 1    
    18    8   75 1    
    19    9   10 ar   
    20    9   14 ar   
    21   10   11 ar   
    22   10   76 1    
    23   11   12 ar   
    24   11   48 1    
    25   12   13 ar   
    26   12   77 1    
    27   13   14 ar   
    28   13   15 1    
    29   14   78 1    
    30   15   16 1    
    31   15   79 1    
    32   15   80 1    
    33   16   17 1    
    34   17   18 1    
    35   17   81 1    
    36   17   82 1    
    37   18   19 1    
    38   18   22 1    
    39   18   83 1    
    40   19   20 am   BACKBONE|DICT|INTERRES
    41   19   21 2    
    42   20   84 1    
    43   20   85 1    
    44   22   23 am   BACKBONE|DICT|INTERRES
    45   22   86 1    
    46   23   24 2    
    47   23   25 1    
    48   25   26 1    
    49   25   27 1    
    50   25   87 1    
    51   26   88 1    
    52   26   89 1    
    53   26   90 1    
    54   27   28 am   BACKBONE|DICT|INTERRES
    55   27   91 1    
    56   28   29 2    
    57   28   30 1    
    58   30   31 1    
    59   30   32 1    
    60   30   92 1    
    61   31   93 1    
    62   31   94 1    
    63   31   95 1    
    64   32   33 am   BACKBONE|DICT|INTERRES
    65   32   96 1    
    66   33   34 2    
    67   33   35 1    
    68   35   36 1    
    69   35   37 1    
    70   35   97 1    
    71   36   98 1    
    72   36   99 1    
    73   36  100 1    
    74   37   38 am   BACKBONE|DICT|INTERRES
    75   37  101 1    
    76   38   39 2    
    77   38   40 1    
    78   40   41 1    
    79   40   42 1    
    80   40  102 1    
    81   41  103 1    
    82   41  104 1    
    83   41  105 1    
    84   42   43 am   BACKBONE|DICT|INTERRES
    85   42  106 1    
    86   43   44 2    
    87   43   45 1    
    88   45   46 1    
    89   45   49 1    
    90   45  107 1    
    91   46   47 1    
    92   46  108 1    
    93   46  109 1    
    94   47   48 1    
    95   48  110 1    
    96   48  111 1    
    97   49   50 am   BACKBONE|DICT|INTERRES
    98   49  112 1    
    99   50   51 2    
   100   50   52 1    
   101   52   53 1    
   102   52   54 1    
   103   52  113 1    
   104   53  114 1    
   105   53  115 1    
   106   53  116 1    
   107   54   55 am   BACKBONE|DICT|INTERRES
   108   54  117 1    
   109   55   56 2    
   110   55   57 1    
   111   57   58 1    
   112   57   59 1    
   113   57  118 1    
   114   58  119 1    
   115   58  120 1    
   116   58  121 1    
   117   59   60 am   BACKBONE|DICT|INTERRES
   118   59  122 1    
   119   60   61 2    
   120   60   62 1    
   121   62   63 1    
   122   62   64 1    
   123   62  123 1    
   124   63  124 1    
   125   63  125 1    
   126   63  126 1    
   127   64   65 am   BACKBONE|DICT|INTERRES
   128   64  127 1    
   129   65   66 2    
@<TRIPOS>SUBSTRUCTURE
     1 UNK         1 GROUP             0       ****    0 ROOT    
