@<TRIPOS>MOLECULE
3R134
127   129    1
SMALL
USER_CHARGES


@<TRIPOS>ATOM
      1 CA         33.7424  -46.8696  -51.6314 C.3       0 UNK        -0.1968 
      2 C          34.4496  -46.3705  -52.8786 C.2       0 UNK         0.4852 
      3 O          35.6123  -46.7103  -53.1029 O.2       0 UNK        -0.5359 
      4 N          33.7551  -45.5639  -53.6912 N.am      1 UNK        -0.4300 
      5 CA         34.3044  -44.9248  -54.8932 C.3       1 UNK         0.0863 
      6 C6         33.4621  -43.7043  -55.3347 C.3       11 UNK        -0.0953 
      7 S7         33.5801  -42.3813  -54.0803 S.3       11 UNK        -0.2369 
      8 C8         31.9832  -41.5215  -54.2328 C.3       11 UNK         0.0226 
      9 C9         30.7961  -42.3535  -53.7623 C.ar      11 UNK        -0.0699 
     10 C10        30.7672  -42.9124  -52.4801 C.ar      11 UNK        -0.0804 
     11 C11        29.6547  -43.6418  -52.0455 C.ar      11 UNK        -0.0871 
     12 C12        28.5690  -43.8222  -52.9097 C.ar      11 UNK        -0.1008 
     13 C13        28.5849  -43.2625  -54.1911 C.ar      11 UNK        -0.0735 
     14 C14        29.6946  -42.5201  -54.6036 C.ar      11 UNK        -0.0945 
     15 C15        27.3931  -43.4273  -55.1242 C.3       11 UNK         0.0169 
     16 S16        27.4246  -45.0087  -56.0240 S.3       11 UNK        -0.2669 
     17 C17        28.9250  -44.8471  -57.0579 C.3       11 UNK        -0.0850 
     18 CA         29.5277  -46.2113  -57.4672 C.3       10 UNK         0.0855 
     19 C          30.1090  -46.9924  -56.2519 C.2       10 UNK         0.5543 
     20 N          29.7343  -48.2453  -56.0364 N.am      10 UNK        -0.7343 
     21 O          30.9256  -46.4592  -55.5041 O.2       10 UNK        -0.5027 
     22 N          28.5726  -46.9625  -58.2938 N.am      10 UNK        -0.4495 
     23 C          28.8838  -47.7996  -59.2896 C.2       10 UNK         0.4903 
     24 O          30.0358  -48.0621  -59.6330 O.2       10 UNK        -0.4860 
     25 CA         27.7094  -48.4590  -60.0368 C.3       9 UNK         0.0227 
     26 CB         27.5153  -49.9054  -59.5532 C.3       9 UNK        -0.1964 
     27 N          26.4417  -47.7355  -59.8944 N.am      9 UNK        -0.4231 
     28 C          26.1395  -46.5551  -60.4488 C.2       9 UNK         0.5014 
     29 O          26.8988  -45.9394  -61.1975 O.2       9 UNK        -0.5270 
     30 CA         24.7655  -45.9439  -60.1033 C.3       8 UNK         0.0284 
     31 CB         23.6460  -46.5929  -60.9413 C.3       8 UNK        -0.1977 
     32 N          24.4278  -45.9347  -58.6682 N.am      8 UNK        -0.4342 
     33 C          24.2335  -46.9767  -57.8490 C.2       8 UNK         0.5039 
     34 O          24.3175  -48.1587  -58.1986 O.2       8 UNK        -0.5547 
     35 CA         23.9239  -46.6615  -56.3830 C.3       7 UNK         0.0281 
     36 CB         22.4101  -46.6743  -56.1153 C.3       7 UNK        -0.1963 
     37 N          24.5782  -47.7029  -55.6029 N.am      7 UNK        -0.4444 
     38 C          25.2271  -47.5289  -54.4499 C.2       7 UNK         0.5104 
     39 O          25.1750  -46.4925  -53.7839 O.2       7 UNK        -0.5100 
     40 CA         26.1126  -48.6894  -53.9677 C.3       6 UNK         0.0396 
     41 CB         26.4120  -49.7557  -55.0475 C.3       6 UNK        -0.1801 
     42 N          27.3604  -48.1206  -53.4663 N.am      6 UNK        -0.4747 
     43 C          28.1703  -48.6960  -52.5735 C.2       6 UNK         0.5012 
     44 O          27.9555  -49.7995  -52.0638 O.2       6 UNK        -0.5003 
     45 CA         29.4025  -47.8759  -52.1417 C.3       5 UNK         0.0782 
     46 C46        29.0238  -46.9387  -50.9687 C.3       11 UNK        -0.0868 
     47 S47        30.3855  -45.8258  -50.4843 S.3       11 UNK        -0.2515 
     48 C48        29.6131  -44.1837  -50.6236 C.3       11 UNK         0.0199 
     49 N          30.5204  -48.7614  -51.7939 N.am      5 UNK        -0.4607 
     50 C          31.2215  -49.4784  -52.6787 C.2       4 UNK         0.5031 
     51 O          31.0199  -49.4618  -53.8935 O.2       4 UNK        -0.5119 
     52 CA         32.3429  -50.3587  -52.1225 C.3       4 UNK         0.0263 
     53 CB         31.8551  -51.7983  -51.8906 C.3       4 UNK        -0.1967 
     54 N          33.4344  -50.3531  -53.0912 N.am      4 UNK        -0.4237 
     55 C          34.7377  -50.3899  -52.8020 C.2       3 UNK         0.4908 
     56 O          35.1734  -50.5431  -51.6603 O.2       3 UNK        -0.5102 
     57 CA         35.7390  -50.1897  -53.9554 C.3       3 UNK         0.0241 
     58 CB         36.2005  -51.5408  -54.5373 C.3       3 UNK        -0.1971 
     59 N          35.2985  -49.2570  -55.0064 N.am      3 UNK        -0.4139 
     60 C          34.3480  -49.4184  -55.9392 C.2       2 UNK         0.5016 
     61 O          33.6453  -50.4253  -56.0322 O.2       2 UNK        -0.5319 
     62 CA         34.1228  -48.2241  -56.8813 C.3       2 UNK         0.0286 
     63 CB         32.9936  -48.4644  -57.8994 C.3       2 UNK        -0.1963 
     64 N          33.8234  -47.0407  -56.0724 N.am      2 UNK        -0.4790 
     65 C          34.5641  -45.9249  -56.0405 C.2       1 UNK         0.5024 
     66 O          35.4784  -45.6965  -56.8338 O.2       1 UNK        -0.4888 
     67 H67        32.6812  -47.0105  -51.8211 H         1 UNK         0.0892 
     68 H68        34.1603  -47.8203  -51.3033 H         1 UNK         0.0892 
     69 H69        33.8551  -46.1503  -50.8207 H         1 UNK         0.0892 
     70 H70        32.7969  -45.3274  -53.4726 H         1 UNK         0.3107 
     71 H71        35.2937  -44.5468  -54.6232 H         1 UNK         0.0773 
     72 H72        32.4199  -43.9888  -55.4911 H         1 UNK         0.0680 
     73 H73        33.8231  -43.2992  -56.2819 H         1 UNK         0.0680 
     74 H74        31.8566  -41.2064  -55.2697 H         1 UNK         0.0650 
     75 H75        32.0230  -40.6086  -53.6374 H         1 UNK         0.0650 
     76 H76        31.6072  -42.7658  -51.8147 H         1 UNK         0.1397 
     77 H77        27.7019  -44.3799  -52.5831 H         1 UNK         0.1363 
     78 H78        29.6996  -42.0702  -55.5870 H         1 UNK         0.1355 
     79 H79        27.3500  -42.6066  -55.8420 H         1 UNK         0.0707 
     80 H80        26.4687  -43.3743  -54.5469 H         1 UNK         0.0707 
     81 H81        28.6689  -44.2711  -57.9484 H         1 UNK         0.1034 
     82 H82        29.6867  -44.2656  -56.5429 H         1 UNK         0.1034 
     83 H83        30.3944  -45.9899  -58.0929 H         1 UNK         0.0482 
     84 H84        29.0984  -48.7075  -56.6617 H         1 UNK         0.3460 
     85 H85        30.1609  -48.7514  -55.2620 H         1 UNK         0.3460 
     86 H86        27.5998  -46.8180  -58.0701 H         1 UNK         0.2989 
     87 H87        27.9680  -48.4832  -61.0974 H         1 UNK         0.0559 
     88 H88        28.4361  -50.4810  -59.6587 H         1 UNK         0.0848 
     89 H89        26.7476  -50.4174  -60.1337 H         1 UNK         0.0848 
     90 H90        27.2230  -49.9459  -58.5032 H         1 UNK         0.0848 
     91 H91        25.7291  -48.1459  -59.2899 H         1 UNK         0.3144 
     92 H92        24.8161  -44.8934  -60.3947 H         1 UNK         0.0727 
     93 H93        22.6878  -46.1029  -60.7687 H         1 UNK         0.0790 
     94 H94        23.5251  -47.6527  -60.7149 H         1 UNK         0.0790 
     95 H95        23.8628  -46.5134  -62.0074 H         1 UNK         0.0790 
     96 H96        24.3651  -45.0106  -58.2618 H         1 UNK         0.3215 
     97 H97        24.3380  -45.6832  -56.1279 H         1 UNK         0.0863 
     98 H98        22.1938  -46.4812  -55.0644 H         1 UNK         0.0808 
     99 H99        21.9619  -47.6333  -56.3787 H         1 UNK         0.0808 
    100 H100       21.9036  -45.9043  -56.6986 H         1 UNK         0.0808 
    101 H101       24.6978  -48.5683  -56.1156 H         1 UNK         0.3118 
    102 H102       25.5821  -49.1656  -53.1408 H         1 UNK         0.0546 
    103 H103       25.5026  -50.2622  -55.3727 H         1 UNK         0.0828 
    104 H104       27.0786  -50.5295  -54.6666 H         1 UNK         0.0828 
    105 H105       26.8873  -49.3186  -55.9262 H         1 UNK         0.0828 
    106 H106       27.5598  -47.1851  -53.7981 H         1 UNK         0.3005 
    107 H107       29.7160  -47.2622  -52.9908 H         1 UNK         0.1257 
    108 H108       28.7356  -47.5207  -50.0910 H         1 UNK         0.0775 
    109 H109       28.1492  -46.3400  -51.2281 H         1 UNK         0.0775 
    110 H110       28.5876  -44.2175  -50.2523 H         1 UNK         0.0840 
    111 H111       30.1429  -43.4982  -49.9603 H         1 UNK         0.0840 
    112 H112       30.7231  -48.8492  -50.8093 H         1 UNK         0.2987 
    113 H113       32.6856  -49.9342  -51.1764 H         1 UNK         0.0785 
    114 H114       32.6497  -52.4252  -51.4855 H         1 UNK         0.0798 
    115 H115       31.5050  -52.2570  -52.8164 H         1 UNK         0.0798 
    116 H116       31.0275  -51.8211  -51.1805 H         1 UNK         0.0798 
    117 H117       33.1506  -50.2403  -54.0616 H         1 UNK         0.3079 
    118 H118       36.6156  -49.7152  -53.5109 H         1 UNK         0.0794 
    119 H119       36.6441  -52.1650  -53.7605 H         1 UNK         0.0786 
    120 H120       36.9548  -51.4029  -55.3120 H         1 UNK         0.0786 
    121 H121       35.3737  -52.1054  -54.9689 H         1 UNK         0.0786 
    122 H122       35.7480  -48.3508  -54.9664 H         1 UNK         0.3032 
    123 H123       35.0510  -48.0863  -57.4407 H         1 UNK         0.1094 
    124 H124       32.7951  -47.5745  -58.4967 H         1 UNK         0.0794 
    125 H125       33.2587  -49.2666  -58.5888 H         1 UNK         0.0794 
    126 H126       32.0640  -48.7572  -57.4137 H         1 UNK         0.0794 
    127 H127       33.0451  -47.1203  -55.4270 H         1 UNK         0.3016 
@<TRIPOS>BOND
     1    1    2 1    
     2    1   67 1    
     3    1   68 1    
     4    1   69 1    
     5    2    3 2    
     6    2    4 am   BACKBONE|DICT|INTERRES
     7    4    5 1    
     8    4   70 1    
     9    5    6 1    
    10    5   65 1    
    11    5   71 1    
    12    6    7 1    
    13    6   72 1    
    14    6   73 1    
    15    7    8 1    
    16    8    9 1    
    17    8   74 1    
    18    8   75 1    
    19    9   10 ar   
    20    9   14 ar   
    21   10   11 ar   
    22   10   76 1    
    23   11   12 ar   
    24   11   48 1    
    25   12   13 ar   
    26   12   77 1    
    27   13   14 ar   
    28   13   15 1    
    29   14   78 1    
    30   15   16 1    
    31   15   79 1    
    32   15   80 1    
    33   16   17 1    
    34   17   18 1    
    35   17   81 1    
    36   17   82 1    
    37   18   19 1    
    38   18   22 1    
    39   18   83 1    
    40   19   20 am   BACKBONE|DICT|INTERRES
    41   19   21 2    
    42   20   84 1    
    43   20   85 1    
    44   22   23 am   BACKBONE|DICT|INTERRES
    45   22   86 1    
    46   23   24 2    
    47   23   25 1    
    48   25   26 1    
    49   25   27 1    
    50   25   87 1    
    51   26   88 1    
    52   26   89 1    
    53   26   90 1    
    54   27   28 am   BACKBONE|DICT|INTERRES
    55   27   91 1    
    56   28   29 2    
    57   28   30 1    
    58   30   31 1    
    59   30   32 1    
    60   30   92 1    
    61   31   93 1    
    62   31   94 1    
    63   31   95 1    
    64   32   33 am   BACKBONE|DICT|INTERRES
    65   32   96 1    
    66   33   34 2    
    67   33   35 1    
    68   35   36 1    
    69   35   37 1    
    70   35   97 1    
    71   36   98 1    
    72   36   99 1    
    73   36  100 1    
    74   37   38 am   BACKBONE|DICT|INTERRES
    75   37  101 1    
    76   38   39 2    
    77   38   40 1    
    78   40   41 1    
    79   40   42 1    
    80   40  102 1    
    81   41  103 1    
    82   41  104 1    
    83   41  105 1    
    84   42   43 am   BACKBONE|DICT|INTERRES
    85   42  106 1    
    86   43   44 2    
    87   43   45 1    
    88   45   46 1    
    89   45   49 1    
    90   45  107 1    
    91   46   47 1    
    92   46  108 1    
    93   46  109 1    
    94   47   48 1    
    95   48  110 1    
    96   48  111 1    
    97   49   50 am   BACKBONE|DICT|INTERRES
    98   49  112 1    
    99   50   51 2    
   100   50   52 1    
   101   52   53 1    
   102   52   54 1    
   103   52  113 1    
   104   53  114 1    
   105   53  115 1    
   106   53  116 1    
   107   54   55 am   BACKBONE|DICT|INTERRES
   108   54  117 1    
   109   55   56 2    
   110   55   57 1    
   111   57   58 1    
   112   57   59 1    
   113   57  118 1    
   114   58  119 1    
   115   58  120 1    
   116   58  121 1    
   117   59   60 am   BACKBONE|DICT|INTERRES
   118   59  122 1    
   119   60   61 2    
   120   60   62 1    
   121   62   63 1    
   122   62   64 1    
   123   62  123 1    
   124   63  124 1    
   125   63  125 1    
   126   63  126 1    
   127   64   65 am   BACKBONE|DICT|INTERRES
   128   64  127 1    
   129   65   66 2    
@<TRIPOS>SUBSTRUCTURE
     1 UNK         1 GROUP             0       ****    0 ROOT    
