@<TRIPOS>MOLECULE
3R134
127   129    1
SMALL
USER_CHARGES


@<TRIPOS>ATOM
      1 CA         27.9419  -45.0191  -51.6857 C.3       0 UNK        -0.1968 
      2 C          29.2577  -44.9173  -50.9293 C.2       0 UNK         0.4852 
      3 O          29.5274  -43.8897  -50.3063 O.2       0 UNK        -0.5359 
      4 N          30.0724  -45.9744  -50.9799 N.am      1 UNK        -0.4300 
      5 CA         31.3796  -46.0903  -50.3378 C.3       1 UNK         0.0863 
      6 C6         32.4637  -45.1736  -50.9751 C.3       11 UNK        -0.0953 
      7 S7         32.7894  -45.5385  -52.7319 S.3       11 UNK        -0.2369 
      8 C8         32.1452  -44.0440  -53.5472 C.3       11 UNK         0.0226 
      9 C9         32.0521  -44.2344  -55.0544 C.ar      11 UNK        -0.0699 
     10 C10        33.1907  -44.5697  -55.7929 C.ar      11 UNK        -0.0804 
     11 C11        33.1060  -44.8021  -57.1677 C.ar      11 UNK        -0.0871 
     12 C12        31.8751  -44.6592  -57.8146 C.ar      11 UNK        -0.1008 
     13 C13        30.7288  -44.3157  -57.0899 C.ar      11 UNK        -0.0735 
     14 C14        30.8250  -44.0994  -55.7108 C.ar      11 UNK        -0.0945 
     15 C15        29.3733  -44.2563  -57.7789 C.3       11 UNK         0.0169 
     16 S16        28.6768  -42.5772  -57.7863 S.3       11 UNK        -0.2669 
     17 C17        27.0641  -42.8718  -58.5935 C.3       11 UNK        -0.0850 
     18 CA         25.8833  -42.9220  -57.5845 C.3       10 UNK         0.0855 
     19 C          24.5031  -42.8353  -58.3064 C.2       10 UNK         0.5543 
     20 N          23.5419  -43.7129  -58.0402 N.am      10 UNK        -0.7343 
     21 O          24.2941  -41.9416  -59.1232 O.2       10 UNK        -0.5027 
     22 N          26.0069  -44.0645  -56.6640 N.am      10 UNK        -0.4495 
     23 C          25.4977  -44.1157  -55.4275 C.2       10 UNK         0.4903 
     24 O          24.9349  -43.1698  -54.8741 O.2       10 UNK        -0.4860 
     25 CA         25.6270  -45.4732  -54.7124 C.3       9 UNK         0.0227 
     26 CB         24.8330  -45.5459  -53.3899 C.3       9 UNK        -0.1964 
     27 N          25.2941  -46.5985  -55.5975 N.am      9 UNK        -0.4231 
     28 C          24.1111  -46.8639  -56.1734 C.2       9 UNK         0.5014 
     29 O          23.1116  -46.1617  -56.0139 O.2       9 UNK        -0.5270 
     30 CA         24.0149  -48.0826  -57.1176 C.3       8 UNK         0.0284 
     31 CB         23.2649  -47.7206  -58.4141 C.3       8 UNK        -0.1977 
     32 N          25.3126  -48.6585  -57.4817 N.am      8 UNK        -0.4342 
     33 C          26.0076  -49.5577  -56.7722 C.2       8 UNK         0.5039 
     34 O          25.6304  -50.0228  -55.6960 O.2       8 UNK        -0.5547 
     35 CA         27.3722  -49.9942  -57.3489 C.3       7 UNK         0.0281 
     36 CB         27.5294  -49.7065  -58.8598 C.3       7 UNK        -0.1963 
     37 N          28.5150  -49.4229  -56.6242 N.am      7 UNK        -0.4444 
     38 C          28.7052  -48.1363  -56.2923 C.2       7 UNK         0.5104 
     39 O          27.8822  -47.2403  -56.4785 O.2       7 UNK        -0.5100 
     40 CA         30.0680  -47.7751  -55.6829 C.3       6 UNK         0.0396 
     41 CB         30.0984  -48.1131  -54.1859 C.3       6 UNK        -0.1801 
     42 N          31.2156  -48.3793  -56.3717 N.am      6 UNK        -0.4747 
     43 C          31.4892  -48.2393  -57.6833 C.2       6 UNK         0.5012 
     44 O          30.7670  -47.6226  -58.4676 O.2       6 UNK        -0.5003 
     45 CA         32.7658  -48.9002  -58.2482 C.3       5 UNK         0.0782 
     46 C46        33.7525  -47.8620  -58.8489 C.3       11 UNK        -0.0868 
     47 S47        34.7746  -46.9682  -57.6234 S.3       11 UNK        -0.2515 
     48 C48        34.3482  -45.2230  -57.9373 C.3       11 UNK         0.0199 
     49 N          33.4274  -49.8097  -57.3098 N.am      5 UNK        -0.4607 
     50 C          32.9943  -51.0333  -56.9822 C.2       4 UNK         0.5031 
     51 O          31.9974  -51.5590  -57.4774 O.2       4 UNK        -0.5119 
     52 CA         33.7961  -51.7939  -55.9089 C.3       4 UNK         0.0263 
     53 CB         34.7679  -52.7848  -56.5698 C.3       4 UNK        -0.1967 
     54 N          34.5415  -50.9265  -54.9866 N.am      4 UNK        -0.4237 
     55 C          33.9790  -50.0497  -54.1437 C.2       3 UNK         0.4908 
     56 O          32.7659  -49.8448  -54.0833 O.2       3 UNK        -0.5102 
     57 CA         34.9399  -49.2243  -53.2732 C.3       3 UNK         0.0241 
     58 CB         35.3408  -47.9336  -54.0063 C.3       3 UNK        -0.1971 
     59 N          34.3465  -48.8838  -51.9771 N.am      3 UNK        -0.4139 
     60 C          34.1308  -49.7641  -50.9881 C.2       2 UNK         0.5016 
     61 O          34.4425  -50.9543  -51.0611 O.2       2 UNK        -0.5319 
     62 CA         33.4994  -49.2456  -49.6797 C.3       2 UNK         0.0286 
     63 CB         34.5271  -49.2841  -48.5354 C.3       2 UNK        -0.1963 
     64 N          32.9517  -47.8880  -49.7709 N.am      2 UNK        -0.4790 
     65 C          31.7710  -47.5821  -50.3241 C.2       1 UNK         0.5024 
     66 O          31.0103  -48.4231  -50.8120 O.2       1 UNK        -0.4888 
     67 H67        27.8140  -45.9946  -52.1521 H         1 UNK         0.0892 
     68 H68        27.1069  -44.8573  -51.0061 H         1 UNK         0.0892 
     69 H69        27.8987  -44.2607  -52.4661 H         1 UNK         0.0892 
     70 H70        29.7945  -46.8278  -51.4494 H         1 UNK         0.3107 
     71 H71        31.2560  -45.7983  -49.2929 H         1 UNK         0.0773 
     72 H72        32.1725  -44.1277  -50.8720 H         1 UNK         0.0680 
     73 H73        33.4062  -45.2550  -50.4323 H         1 UNK         0.0680 
     74 H74        32.7992  -43.1997  -53.3259 H         1 UNK         0.0650 
     75 H75        31.1660  -43.8040  -53.1303 H         1 UNK         0.0650 
     76 H76        34.1402  -44.6865  -55.2882 H         1 UNK         0.1397 
     77 H77        31.8011  -44.8537  -58.8758 H         1 UNK         0.1363 
     78 H78        29.9346  -43.8526  -55.1488 H         1 UNK         0.1355 
     79 H79        28.6881  -44.9239  -57.2596 H         1 UNK         0.0707 
     80 H80        29.4451  -44.6235  -58.8039 H         1 UNK         0.0707 
     81 H81        26.9221  -42.0573  -59.3065 H         1 UNK         0.1034 
     82 H82        27.1005  -43.7838  -59.1918 H         1 UNK         0.1034 
     83 H83        25.9408  -42.0109  -56.9859 H         1 UNK         0.0482 
     84 H84        22.6589  -43.6283  -58.5180 H         1 UNK         0.3460 
     85 H85        23.6620  -44.4234  -57.3318 H         1 UNK         0.3460 
     86 H86        26.4416  -44.8958  -57.0368 H         1 UNK         0.2989 
     87 H87        26.6841  -45.5847  -54.4675 H         1 UNK         0.0559 
     88 H88        23.7621  -45.4181  -53.5493 H         1 UNK         0.0848 
     89 H89        25.1481  -44.7623  -52.7003 H         1 UNK         0.0848 
     90 H90        24.9861  -46.5009  -52.8877 H         1 UNK         0.0848 
     91 H91        26.0907  -47.1698  -55.8697 H         1 UNK         0.3144 
     92 H92        23.4311  -48.8419  -56.5924 H         1 UNK         0.0727 
     93 H93        23.1713  -48.5837  -59.0738 H         1 UNK         0.0790 
     94 H94        23.7723  -46.9278  -58.9662 H         1 UNK         0.0790 
     95 H95        22.2529  -47.3727  -58.2014 H         1 UNK         0.0790 
     96 H96        25.7342  -48.3096  -58.3308 H         1 UNK         0.3215 
     97 H97        27.4248  -51.0757  -57.2131 H         1 UNK         0.0863 
     98 H98        28.4407  -50.1633  -59.2468 H         1 UNK         0.0808 
     99 H99        27.5900  -48.6386  -59.0746 H         1 UNK         0.0808 
    100 H100       26.6993  -50.1212  -59.4338 H         1 UNK         0.0808 
    101 H101       29.2601  -50.0691  -56.4037 H         1 UNK         0.3118 
    102 H102       30.1806  -46.6975  -55.7749 H         1 UNK         0.0546 
    103 H103       31.0108  -47.7454  -53.7170 H         1 UNK         0.0828 
    104 H104       30.0454  -49.1879  -54.0099 H         1 UNK         0.0828 
    105 H105       29.2586  -47.6534  -53.6644 H         1 UNK         0.0828 
    106 H106       31.8586  -48.9071  -55.7918 H         1 UNK         0.3005 
    107 H107       32.4115  -49.5093  -59.0836 H         1 UNK         0.1257 
    108 H108       33.2263  -47.1511  -59.4886 H         1 UNK         0.0775 
    109 H109       34.4439  -48.3810  -59.5142 H         1 UNK         0.0775 
    110 H110       35.1873  -44.5993  -57.6255 H         1 UNK         0.0840 
    111 H111       34.2281  -45.0495  -59.0077 H         1 UNK         0.0840 
    112 H112       34.2509  -49.4442  -56.8544 H         1 UNK         0.2987 
    113 H113       33.0776  -52.3637  -55.3157 H         1 UNK         0.0785 
    114 H114       34.2381  -53.4625  -57.2410 H         1 UNK         0.0798 
    115 H115       35.2748  -53.4007  -55.8266 H         1 UNK         0.0798 
    116 H116       35.5292  -52.2722  -57.1593 H         1 UNK         0.0798 
    117 H117       35.5470  -51.0243  -54.9887 H         1 UNK         0.3079 
    118 H118       35.8411  -49.8119  -53.0851 H         1 UNK         0.0794 
    119 H119       34.4686  -47.3593  -54.3210 H         1 UNK         0.0786 
    120 H120       35.9168  -48.1590  -54.9045 H         1 UNK         0.0786 
    121 H121       35.9598  -47.2908  -53.3802 H         1 UNK         0.0786 
    122 H122       34.0164  -47.9371  -51.8598 H         1 UNK         0.3032 
    123 H123       32.6874  -49.9323  -49.4286 H         1 UNK         0.1094 
    124 H124       35.3702  -48.6191  -48.7267 H         1 UNK         0.0794 
    125 H125       34.0765  -48.9930  -47.5863 H         1 UNK         0.0794 
    126 H126       34.9296  -50.2896  -48.4037 H         1 UNK         0.0794 
    127 H127       33.5209  -47.1460  -49.3885 H         1 UNK         0.3016 
@<TRIPOS>BOND
     1    1    2 1    
     2    1   67 1    
     3    1   68 1    
     4    1   69 1    
     5    2    3 2    
     6    2    4 am   BACKBONE|DICT|INTERRES
     7    4    5 1    
     8    4   70 1    
     9    5    6 1    
    10    5   65 1    
    11    5   71 1    
    12    6    7 1    
    13    6   72 1    
    14    6   73 1    
    15    7    8 1    
    16    8    9 1    
    17    8   74 1    
    18    8   75 1    
    19    9   10 ar   
    20    9   14 ar   
    21   10   11 ar   
    22   10   76 1    
    23   11   12 ar   
    24   11   48 1    
    25   12   13 ar   
    26   12   77 1    
    27   13   14 ar   
    28   13   15 1    
    29   14   78 1    
    30   15   16 1    
    31   15   79 1    
    32   15   80 1    
    33   16   17 1    
    34   17   18 1    
    35   17   81 1    
    36   17   82 1    
    37   18   19 1    
    38   18   22 1    
    39   18   83 1    
    40   19   20 am   BACKBONE|DICT|INTERRES
    41   19   21 2    
    42   20   84 1    
    43   20   85 1    
    44   22   23 am   BACKBONE|DICT|INTERRES
    45   22   86 1    
    46   23   24 2    
    47   23   25 1    
    48   25   26 1    
    49   25   27 1    
    50   25   87 1    
    51   26   88 1    
    52   26   89 1    
    53   26   90 1    
    54   27   28 am   BACKBONE|DICT|INTERRES
    55   27   91 1    
    56   28   29 2    
    57   28   30 1    
    58   30   31 1    
    59   30   32 1    
    60   30   92 1    
    61   31   93 1    
    62   31   94 1    
    63   31   95 1    
    64   32   33 am   BACKBONE|DICT|INTERRES
    65   32   96 1    
    66   33   34 2    
    67   33   35 1    
    68   35   36 1    
    69   35   37 1    
    70   35   97 1    
    71   36   98 1    
    72   36   99 1    
    73   36  100 1    
    74   37   38 am   BACKBONE|DICT|INTERRES
    75   37  101 1    
    76   38   39 2    
    77   38   40 1    
    78   40   41 1    
    79   40   42 1    
    80   40  102 1    
    81   41  103 1    
    82   41  104 1    
    83   41  105 1    
    84   42   43 am   BACKBONE|DICT|INTERRES
    85   42  106 1    
    86   43   44 2    
    87   43   45 1    
    88   45   46 1    
    89   45   49 1    
    90   45  107 1    
    91   46   47 1    
    92   46  108 1    
    93   46  109 1    
    94   47   48 1    
    95   48  110 1    
    96   48  111 1    
    97   49   50 am   BACKBONE|DICT|INTERRES
    98   49  112 1    
    99   50   51 2    
   100   50   52 1    
   101   52   53 1    
   102   52   54 1    
   103   52  113 1    
   104   53  114 1    
   105   53  115 1    
   106   53  116 1    
   107   54   55 am   BACKBONE|DICT|INTERRES
   108   54  117 1    
   109   55   56 2    
   110   55   57 1    
   111   57   58 1    
   112   57   59 1    
   113   57  118 1    
   114   58  119 1    
   115   58  120 1    
   116   58  121 1    
   117   59   60 am   BACKBONE|DICT|INTERRES
   118   59  122 1    
   119   60   61 2    
   120   60   62 1    
   121   62   63 1    
   122   62   64 1    
   123   62  123 1    
   124   63  124 1    
   125   63  125 1    
   126   63  126 1    
   127   64   65 am   BACKBONE|DICT|INTERRES
   128   64  127 1    
   129   65   66 2    
@<TRIPOS>SUBSTRUCTURE
     1 UNK         1 GROUP             0       ****    0 ROOT    
