@<TRIPOS>MOLECULE
3R134
127   129    1
SMALL
USER_CHARGES


@<TRIPOS>ATOM
      1 CA         33.7761  -46.1923  -50.1698 C.3       0 UNK        -0.1968 
      2 C          33.9551  -46.2420  -51.6790 C.2       0 UNK         0.4852 
      3 O          33.1500  -46.8691  -52.3690 O.2       0 UNK        -0.5359 
      4 N          35.0245  -45.6094  -52.1855 N.am      1 UNK        -0.4300 
      5 CA         35.3724  -45.4768  -53.6104 C.3       1 UNK         0.0863 
      6 C6         34.3892  -44.5610  -54.3906 C.3       11 UNK        -0.0953 
      7 S7         34.2257  -42.8971  -53.6675 S.3       11 UNK        -0.2369 
      8 C8         32.8252  -42.2302  -54.6309 C.3       11 UNK         0.0226 
      9 C9         31.4922  -42.9279  -54.3640 C.ar      11 UNK        -0.0699 
     10 C10        31.0521  -43.1615  -53.0551 C.ar      11 UNK        -0.0804 
     11 C11        29.8143  -43.7674  -52.8148 C.ar      11 UNK        -0.0871 
     12 C12        29.0004  -44.1103  -53.8952 C.ar      11 UNK        -0.1008 
     13 C13        29.4360  -43.9128  -55.2059 C.ar      11 UNK        -0.0735 
     14 C14        30.6794  -43.3153  -55.4367 C.ar      11 UNK        -0.0945 
     15 C15        28.5658  -44.3876  -56.3574 C.3       11 UNK         0.0169 
     16 S16        27.4507  -43.0771  -56.9484 S.3       11 UNK        -0.2669 
     17 C17        28.2855  -42.5728  -58.4926 C.3       11 UNK        -0.0850 
     18 CA         27.6216  -43.1763  -59.7602 C.3       10 UNK         0.0855 
     19 C          28.3870  -42.7147  -61.0313 C.2       10 UNK         0.5543 
     20 N          27.9444  -41.6385  -61.6666 N.am      10 UNK        -0.7343 
     21 O          29.4026  -43.2940  -61.4116 O.2       10 UNK        -0.5027 
     22 N          27.4881  -44.6386  -59.6540 N.am      10 UNK        -0.4495 
     23 C          26.9277  -45.4551  -60.5551 C.2       10 UNK         0.4903 
     24 O          26.4272  -45.0817  -61.6164 O.2       10 UNK        -0.4860 
     25 CA         26.9051  -46.9521  -60.1983 C.3       9 UNK         0.0227 
     26 CB         28.2105  -47.6318  -60.6434 C.3       9 UNK        -0.1964 
     27 N          26.6844  -47.2144  -58.7719 N.am      9 UNK        -0.4231 
     28 C          25.5338  -46.9951  -58.1167 C.2       9 UNK         0.5014 
     29 O          24.5349  -46.4983  -58.6406 O.2       9 UNK        -0.5270 
     30 CA         25.4974  -47.4112  -56.6301 C.3       8 UNK         0.0284 
     31 CB         24.0647  -47.5827  -56.0822 C.3       8 UNK        -0.1977 
     32 N          26.3151  -48.5968  -56.3404 N.am      8 UNK        -0.4342 
     33 C          26.1674  -49.8370  -56.8323 C.2       8 UNK         0.5039 
     34 O          25.2657  -50.1784  -57.5985 O.2       8 UNK        -0.5547 
     35 CA         27.2243  -50.8719  -56.4124 C.3       7 UNK         0.0281 
     36 CB         28.4839  -50.7375  -57.2845 C.3       7 UNK        -0.1963 
     37 N          27.5932  -50.7674  -54.9985 N.am      7 UNK        -0.4444 
     38 C          26.8232  -51.1796  -53.9811 C.2       7 UNK         0.5104 
     39 O          25.7214  -51.7102  -54.1245 O.2       7 UNK        -0.5100 
     40 CA         27.3784  -50.9734  -52.5610 C.3       6 UNK         0.0396 
     41 CB         28.2670  -52.1586  -52.1503 C.3       6 UNK        -0.1801 
     42 N          28.1390  -49.7287  -52.4398 N.am      6 UNK        -0.4747 
     43 C          27.5846  -48.5115  -52.3274 C.2       6 UNK         0.5012 
     44 O          26.3724  -48.3191  -52.2302 O.2       6 UNK        -0.5003 
     45 CA         28.5423  -47.3012  -52.3498 C.3       5 UNK         0.0782 
     46 C46        28.8854  -46.8543  -50.9049 C.3       11 UNK        -0.0868 
     47 S47        30.1745  -45.5679  -50.7577 S.3       11 UNK        -0.2515 
     48 C48        29.3675  -44.0624  -51.3903 C.3       11 UNK         0.0199 
     49 N          29.7272  -47.5373  -53.1833 N.am      5 UNK        -0.4607 
     50 C          29.6964  -47.7620  -54.5055 C.2       4 UNK         0.5031 
     51 O          28.6641  -47.7560  -55.1738 O.2       4 UNK        -0.5119 
     52 CA         31.0222  -48.0970  -55.2019 C.3       4 UNK         0.0263 
     53 CB         31.5893  -46.8445  -55.8773 C.3       4 UNK        -0.1967 
     54 N          32.0034  -48.6735  -54.2799 N.am      4 UNK        -0.4237 
     55 C          31.9002  -49.9052  -53.7606 C.2       3 UNK         0.4908 
     56 O          30.9864  -50.6818  -54.0487 O.2       3 UNK        -0.5102 
     57 CA         32.9478  -50.3092  -52.7052 C.3       3 UNK         0.0241 
     58 CB         33.0266  -51.8360  -52.4884 C.3       3 UNK        -0.1971 
     59 N          34.2775  -49.7328  -52.9444 N.am      3 UNK        -0.4139 
     60 C          35.1104  -49.9731  -53.9689 C.2       2 UNK         0.5016 
     61 O          34.8725  -50.7589  -54.8880 O.2       2 UNK        -0.5319 
     62 CA         36.4407  -49.1897  -53.9393 C.3       2 UNK         0.0286 
     63 CB         37.2699  -49.3432  -55.2336 C.3       2 UNK        -0.1963 
     64 N          36.2492  -47.7732  -53.5892 N.am      2 UNK        -0.4790 
     65 C          35.5643  -46.8541  -54.2910 C.2       1 UNK         0.5024 
     66 O          35.0740  -47.0693  -55.3997 O.2       1 UNK        -0.4888 
     67 H67        34.7220  -46.0207  -49.6566 H         1 UNK         0.0892 
     68 H68        33.0899  -45.3896  -49.9024 H         1 UNK         0.0892 
     69 H69        33.3596  -47.1314  -49.8065 H         1 UNK         0.0892 
     70 H70        35.6427  -45.1217  -51.5522 H         1 UNK         0.3107 
     71 H71        36.3529  -44.9990  -53.6404 H         1 UNK         0.0773 
     72 H72        34.7043  -44.4454  -55.4292 H         1 UNK         0.0680 
     73 H73        33.4021  -45.0153  -54.4114 H         1 UNK         0.0680 
     74 H74        33.0812  -42.2779  -55.6905 H         1 UNK         0.0650 
     75 H75        32.7130  -41.1726  -54.3897 H         1 UNK         0.0650 
     76 H76        31.6791  -42.8808  -52.2200 H         1 UNK         0.1397 
     77 H77        28.0283  -44.5474  -53.7242 H         1 UNK         0.1363 
     78 H78        31.0123  -43.1519  -56.4523 H         1 UNK         0.1355 
     79 H79        29.1901  -44.7680  -57.1664 H         1 UNK         0.0707 
     80 H80        27.9598  -45.2339  -56.0326 H         1 UNK         0.0707 
     81 H81        29.3447  -42.8329  -58.4445 H         1 UNK         0.1034 
     82 H82        28.2544  -41.4825  -58.5402 H         1 UNK         0.1034 
     83 H83        26.6040  -42.7852  -59.8221 H         1 UNK         0.0482 
     84 H84        28.4384  -41.3137  -62.4833 H         1 UNK         0.3460 
     85 H85        27.1186  -41.1508  -61.3550 H         1 UNK         0.3460 
     86 H86        27.8520  -45.0475  -58.8091 H         1 UNK         0.2989 
     87 H87        26.0816  -47.4097  -60.7509 H         1 UNK         0.0559 
     88 H88        29.0768  -47.2387  -60.1096 H         1 UNK         0.0848 
     89 H89        28.3873  -47.4745  -61.7084 H         1 UNK         0.0848 
     90 H90        28.1742  -48.7091  -60.4796 H         1 UNK         0.0848 
     91 H91        27.4446  -47.6377  -58.2605 H         1 UNK         0.3144 
     92 H92        25.9567  -46.5899  -56.0788 H         1 UNK         0.0727 
     93 H93        24.0757  -47.8609  -55.0281 H         1 UNK         0.0790 
     94 H94        23.5119  -48.3490  -56.6263 H         1 UNK         0.0790 
     95 H95        23.4997  -46.6535  -56.1654 H         1 UNK         0.0790 
     96 H96        27.1397  -48.4124  -55.7667 H         1 UNK         0.3215 
     97 H97        26.8021  -51.8653  -56.5811 H         1 UNK         0.0863 
     98 H98        28.9453  -49.7550  -57.1850 H         1 UNK         0.0808 
     99 H99        28.2421  -50.8767  -58.3391 H         1 UNK         0.0808 
    100 H100       29.2310  -51.4869  -57.0221 H         1 UNK         0.0808 
    101 H101       28.4900  -50.3541  -54.7845 H         1 UNK         0.3118 
    102 H102       26.5316  -50.9346  -51.8722 H         1 UNK         0.0546 
    103 H103       28.6259  -52.0502  -51.1268 H         1 UNK         0.0828 
    104 H104       29.1357  -52.2615  -52.8016 H         1 UNK         0.0828 
    105 H105       27.7114  -53.0961  -52.2001 H         1 UNK         0.0828 
    106 H106       29.1433  -49.7962  -52.5322 H         1 UNK         0.3005 
    107 H107       27.9763  -46.4999  -52.8200 H         1 UNK         0.1257 
    108 H108       29.2380  -47.7091  -50.3241 H         1 UNK         0.0775 
    109 H109       27.9870  -46.5005  -50.3953 H         1 UNK         0.0775 
    110 H110       28.2824  -44.1583  -51.3295 H         1 UNK         0.0840 
    111 H111       29.6347  -43.2232  -50.7464 H         1 UNK         0.0840 
    112 H112       30.6236  -47.4878  -52.7171 H         1 UNK         0.2987 
    113 H113       30.8194  -48.8363  -55.9788 H         1 UNK         0.0785 
    114 H114       30.9406  -46.5174  -56.6901 H         1 UNK         0.0798 
    115 H115       32.5765  -47.0229  -56.3019 H         1 UNK         0.0798 
    116 H116       31.6577  -46.0196  -55.1711 H         1 UNK         0.0798 
    117 H117       32.7105  -48.0471  -53.9045 H         1 UNK         0.3079 
    118 H118       32.6005  -49.8683  -51.7696 H         1 UNK         0.0794 
    119 H119       32.0657  -52.2346  -52.1602 H         1 UNK         0.0786 
    120 H120       33.7596  -52.0916  -51.7235 H         1 UNK         0.0786 
    121 H121       33.2981  -52.3619  -53.4042 H         1 UNK         0.0786 
    122 H122       34.5590  -49.0251  -52.2807 H         1 UNK         0.3032 
    123 H123       37.0256  -49.6307  -53.1301 H         1 UNK         0.1094 
    124 H124       36.7258  -48.9959  -56.1123 H         1 UNK         0.0794 
    125 H125       38.2047  -48.7860  -55.1750 H         1 UNK         0.0794 
    126 H126       37.5273  -50.3886  -55.4079 H         1 UNK         0.0794 
    127 H127       36.6151  -47.4916  -52.6894 H         1 UNK         0.3016 
@<TRIPOS>BOND
     1    1    2 1    
     2    1   67 1    
     3    1   68 1    
     4    1   69 1    
     5    2    3 2    
     6    2    4 am   BACKBONE|DICT|INTERRES
     7    4    5 1    
     8    4   70 1    
     9    5    6 1    
    10    5   65 1    
    11    5   71 1    
    12    6    7 1    
    13    6   72 1    
    14    6   73 1    
    15    7    8 1    
    16    8    9 1    
    17    8   74 1    
    18    8   75 1    
    19    9   10 ar   
    20    9   14 ar   
    21   10   11 ar   
    22   10   76 1    
    23   11   12 ar   
    24   11   48 1    
    25   12   13 ar   
    26   12   77 1    
    27   13   14 ar   
    28   13   15 1    
    29   14   78 1    
    30   15   16 1    
    31   15   79 1    
    32   15   80 1    
    33   16   17 1    
    34   17   18 1    
    35   17   81 1    
    36   17   82 1    
    37   18   19 1    
    38   18   22 1    
    39   18   83 1    
    40   19   20 am   BACKBONE|DICT|INTERRES
    41   19   21 2    
    42   20   84 1    
    43   20   85 1    
    44   22   23 am   BACKBONE|DICT|INTERRES
    45   22   86 1    
    46   23   24 2    
    47   23   25 1    
    48   25   26 1    
    49   25   27 1    
    50   25   87 1    
    51   26   88 1    
    52   26   89 1    
    53   26   90 1    
    54   27   28 am   BACKBONE|DICT|INTERRES
    55   27   91 1    
    56   28   29 2    
    57   28   30 1    
    58   30   31 1    
    59   30   32 1    
    60   30   92 1    
    61   31   93 1    
    62   31   94 1    
    63   31   95 1    
    64   32   33 am   BACKBONE|DICT|INTERRES
    65   32   96 1    
    66   33   34 2    
    67   33   35 1    
    68   35   36 1    
    69   35   37 1    
    70   35   97 1    
    71   36   98 1    
    72   36   99 1    
    73   36  100 1    
    74   37   38 am   BACKBONE|DICT|INTERRES
    75   37  101 1    
    76   38   39 2    
    77   38   40 1    
    78   40   41 1    
    79   40   42 1    
    80   40  102 1    
    81   41  103 1    
    82   41  104 1    
    83   41  105 1    
    84   42   43 am   BACKBONE|DICT|INTERRES
    85   42  106 1    
    86   43   44 2    
    87   43   45 1    
    88   45   46 1    
    89   45   49 1    
    90   45  107 1    
    91   46   47 1    
    92   46  108 1    
    93   46  109 1    
    94   47   48 1    
    95   48  110 1    
    96   48  111 1    
    97   49   50 am   BACKBONE|DICT|INTERRES
    98   49  112 1    
    99   50   51 2    
   100   50   52 1    
   101   52   53 1    
   102   52   54 1    
   103   52  113 1    
   104   53  114 1    
   105   53  115 1    
   106   53  116 1    
   107   54   55 am   BACKBONE|DICT|INTERRES
   108   54  117 1    
   109   55   56 2    
   110   55   57 1    
   111   57   58 1    
   112   57   59 1    
   113   57  118 1    
   114   58  119 1    
   115   58  120 1    
   116   58  121 1    
   117   59   60 am   BACKBONE|DICT|INTERRES
   118   59  122 1    
   119   60   61 2    
   120   60   62 1    
   121   62   63 1    
   122   62   64 1    
   123   62  123 1    
   124   63  124 1    
   125   63  125 1    
   126   63  126 1    
   127   64   65 am   BACKBONE|DICT|INTERRES
   128   64  127 1    
   129   65   66 2    
@<TRIPOS>SUBSTRUCTURE
     1 UNK         1 GROUP             0       ****    0 ROOT    
