@<TRIPOS>MOLECULE
3R134
127   129    1
SMALL
USER_CHARGES


@<TRIPOS>ATOM
      1 CA         30.0425  -45.8032  -53.6207 C.3       0 UNK        -0.1968 
      2 C          31.1497  -45.9846  -52.5918 C.2       0 UNK         0.4852 
      3 O          31.1901  -47.0089  -51.9090 O.2       0 UNK        -0.5359 
      4 N          32.0459  -44.9950  -52.4736 N.am      1 UNK        -0.4300 
      5 CA         33.0854  -44.8866  -51.4390 C.3       1 UNK         0.0863 
      6 C6         33.8779  -43.5544  -51.5177 C.3       11 UNK        -0.0953 
      7 S7         32.8355  -42.0684  -51.7221 S.3       11 UNK        -0.2369 
      8 C8         33.3323  -41.4919  -53.3794 C.3       11 UNK         0.0226 
      9 C9         32.7148  -42.3366  -54.4853 C.ar      11 UNK        -0.0699 
     10 C10        33.3735  -43.4732  -54.9631 C.ar      11 UNK        -0.0804 
     11 C11        32.7950  -44.2619  -55.9605 C.ar      11 UNK        -0.0871 
     12 C12        31.5631  -43.8888  -56.5049 C.ar      11 UNK        -0.1008 
     13 C13        30.9011  -42.7421  -56.0541 C.ar      11 UNK        -0.0735 
     14 C14        31.4856  -41.9711  -55.0417 C.ar      11 UNK        -0.0945 
     15 C15        29.5868  -42.3330  -56.7130 C.3       11 UNK         0.0169 
     16 S16        28.3565  -41.6317  -55.5626 S.3       11 UNK        -0.2669 
     17 C17        26.9687  -41.3374  -56.7166 C.3       11 UNK        -0.0850 
     18 CA         25.6512  -42.0584  -56.3054 C.3       10 UNK         0.0855 
     19 C          24.4817  -41.7503  -57.2898 C.2       10 UNK         0.5543 
     20 N          23.6233  -42.7062  -57.6239 N.am      10 UNK        -0.7343 
     21 O          24.3284  -40.6148  -57.7336 O.2       10 UNK        -0.5027 
     22 N          25.8317  -43.4852  -55.9789 N.am      10 UNK        -0.4495 
     23 C          26.2901  -44.4450  -56.7920 C.2       10 UNK         0.4903 
     24 O          26.6342  -44.2511  -57.9599 O.2       10 UNK        -0.4860 
     25 CA         26.4264  -45.8490  -56.1671 C.3       9 UNK         0.0227 
     26 CB         25.3505  -46.1535  -55.0990 C.3       9 UNK        -0.1964 
     27 N          26.4803  -46.9191  -57.1684 N.am      9 UNK        -0.4231 
     28 C          25.5338  -47.2632  -58.0568 C.2       9 UNK         0.5014 
     29 O          24.4251  -46.7314  -58.1360 O.2       9 UNK        -0.5270 
     30 CA         25.8802  -48.4224  -59.0047 C.3       8 UNK         0.0284 
     31 CB         26.8674  -47.9637  -60.0917 C.3       8 UNK        -0.1977 
     32 N          26.4595  -49.5371  -58.2539 N.am      8 UNK        -0.4342 
     33 C          25.7823  -50.6172  -57.8378 C.2       8 UNK         0.5039 
     34 O          24.6212  -50.8692  -58.1623 O.2       8 UNK        -0.5547 
     35 CA         26.5160  -51.5733  -56.8749 C.3       7 UNK         0.0281 
     36 CB         27.2520  -52.6721  -57.6581 C.3       7 UNK        -0.1963 
     37 N          27.4694  -50.8764  -56.0083 N.am      7 UNK        -0.4444 
     38 C          27.1330  -49.9641  -55.0843 C.2       7 UNK         0.5104 
     39 O          25.9744  -49.7608  -54.7233 O.2       7 UNK        -0.5100 
     40 CA         28.2643  -49.0993  -54.4937 C.3       6 UNK         0.0396 
     41 CB         28.4390  -49.3802  -52.9937 C.3       6 UNK        -0.1801 
     42 N          29.5532  -49.2352  -55.1892 N.am      6 UNK        -0.4747 
     43 C          29.7972  -48.8100  -56.4409 C.2       6 UNK         0.5012 
     44 O          28.9339  -48.2836  -57.1449 O.2       6 UNK        -0.5003 
     45 CA         31.2010  -49.0405  -57.0386 C.3       5 UNK         0.0782 
     46 C46        31.9572  -47.7083  -57.2739 C.3       11 UNK        -0.0868 
     47 S47        32.7300  -47.0120  -55.7734 S.3       11 UNK        -0.2515 
     48 C48        33.5052  -45.5126  -56.4520 C.3       11 UNK         0.0199 
     49 N          32.0053  -49.9971  -56.2750 N.am      5 UNK        -0.4607 
     50 C          31.8479  -51.3259  -56.2821 C.2       4 UNK         0.5031 
     51 O          31.0086  -51.9121  -56.9654 O.2       4 UNK        -0.5119 
     52 CA         32.7595  -52.1204  -55.3302 C.3       4 UNK         0.0263 
     53 CB         34.1155  -52.4089  -55.9934 C.3       4 UNK        -0.1967 
     54 N          32.9765  -51.4296  -54.0539 N.am      4 UNK        -0.4237 
     55 C          32.0188  -51.1737  -53.1542 C.2       3 UNK         0.4908 
     56 O          30.8566  -51.5515  -53.2882 O.2       3 UNK        -0.5102 
     57 CA         32.3859  -50.3308  -51.9205 C.3       3 UNK         0.0241 
     58 CB         32.9338  -51.2163  -50.7845 C.3       3 UNK        -0.1971 
     59 N          33.2644  -49.1820  -52.1901 N.am      3 UNK        -0.4139 
     60 C          34.5541  -49.1774  -52.5649 C.2       2 UNK         0.5016 
     61 O          35.1914  -50.2035  -52.8077 O.2       2 UNK        -0.5319 
     62 CA         35.2561  -47.8153  -52.7283 C.3       2 UNK         0.0286 
     63 CB         35.9781  -47.7163  -54.0843 C.3       2 UNK        -0.1963 
     64 N          34.3464  -46.6743  -52.5774 N.am      2 UNK        -0.4790 
     65 C          34.0771  -46.0695  -51.4105 C.2       1 UNK         0.5024 
     66 O          34.5775  -46.4089  -50.3376 O.2       1 UNK        -0.4888 
     67 H67        30.0551  -44.8059  -54.0598 H         1 UNK         0.0892 
     68 H68        30.1495  -46.5285  -54.4243 H         1 UNK         0.0892 
     69 H69        29.0694  -45.9541  -53.1548 H         1 UNK         0.0892 
     70 H70        31.9696  -44.1886  -53.0799 H         1 UNK         0.3107 
     71 H71        32.5581  -44.8999  -50.4828 H         1 UNK         0.0773 
     72 H72        34.6185  -43.5866  -52.3172 H         1 UNK         0.0680 
     73 H73        34.4537  -43.4182  -50.6002 H         1 UNK         0.0680 
     74 H74        34.4203  -41.4874  -53.4617 H         1 UNK         0.0650 
     75 H75        33.0195  -40.4527  -53.4923 H         1 UNK         0.0650 
     76 H76        34.3345  -43.7513  -54.5540 H         1 UNK         0.1397 
     77 H77        31.1230  -44.4923  -57.2870 H         1 UNK         0.1363 
     78 H78        30.9878  -41.0788  -54.6879 H         1 UNK         0.1355 
     79 H79        29.8049  -41.5991  -57.4899 H         1 UNK         0.0707 
     80 H80        29.1379  -43.1930  -57.2123 H         1 UNK         0.0707 
     81 H81        27.2563  -41.6322  -57.7273 H         1 UNK         0.1034 
     82 H82        26.8067  -40.2589  -56.7620 H         1 UNK         0.1034 
     83 H83        25.3323  -41.6063  -55.3657 H         1 UNK         0.0482 
     84 H84        23.7469  -43.6452  -57.2797 H         1 UNK         0.3460 
     85 H85        22.8644  -42.4927  -58.2516 H         1 UNK         0.3460 
     86 H86        25.5738  -43.7426  -55.0377 H         1 UNK         0.2989 
     87 H87        27.3986  -45.8626  -55.6722 H         1 UNK         0.0559 
     88 H88        25.4554  -45.5101  -54.2252 H         1 UNK         0.0848 
     89 H89        25.4294  -47.1782  -54.7390 H         1 UNK         0.0848 
     90 H90        24.3410  -46.0211  -55.4900 H         1 UNK         0.0848 
     91 H91        27.3799  -47.3918  -57.2313 H         1 UNK         0.3144 
     92 H92        24.9600  -48.7401  -59.4997 H         1 UNK         0.0727 
     93 H93        27.0739  -48.7658  -60.8005 H         1 UNK         0.0790 
     94 H94        27.8191  -47.6373  -59.6702 H         1 UNK         0.0790 
     95 H95        26.4586  -47.1265  -60.6592 H         1 UNK         0.0790 
     96 H96        27.4023  -49.3988  -57.9087 H         1 UNK         0.3215 
     97 H97        25.7638  -52.0458  -56.2392 H         1 UNK         0.0863 
     98 H98        27.7135  -53.3967  -56.9868 H         1 UNK         0.0808 
     99 H99        28.0357  -52.2602  -58.2955 H         1 UNK         0.0808 
    100 H100       26.5624  -53.2208  -58.3012 H         1 UNK         0.0808 
    101 H101       28.4515  -51.0119  -56.2041 H         1 UNK         0.3118 
    102 H102       27.9523  -48.0586  -54.5960 H         1 UNK         0.0546 
    103 H103       28.6099  -50.4380  -52.7966 H         1 UNK         0.0828 
    104 H104       27.5425  -49.0950  -52.4418 H         1 UNK         0.0828 
    105 H105       29.2699  -48.8160  -52.5713 H         1 UNK         0.0828 
    106 H106       30.2870  -49.7171  -54.6875 H         1 UNK         0.3005 
    107 H107       31.0209  -49.4803  -58.0226 H         1 UNK         0.1257 
    108 H108       32.7532  -47.8808  -58.0001 H         1 UNK         0.0775 
    109 H109       31.3052  -46.9584  -57.7267 H         1 UNK         0.0775 
    110 H110       34.5554  -45.4988  -56.1563 H         1 UNK         0.0840 
    111 H111       33.5020  -45.5342  -57.5428 H         1 UNK         0.0840 
    112 H112       32.7162  -49.5924  -55.6830 H         1 UNK         0.2987 
    113 H113       32.2688  -53.0730  -55.1193 H         1 UNK         0.0785 
    114 H114       34.7402  -53.0380  -55.3590 H         1 UNK         0.0798 
    115 H115       34.6677  -51.4917  -56.2027 H         1 UNK         0.0798 
    116 H116       33.9831  -52.9347  -56.9400 H         1 UNK         0.0798 
    117 H117       33.9169  -51.1056  -53.8371 H         1 UNK         0.3079 
    118 H118       31.4524  -49.8925  -51.5632 H         1 UNK         0.0794 
    119 H119       32.2173  -51.9953  -50.5205 H         1 UNK         0.0786 
    120 H120       33.1231  -50.6320  -49.8839 H         1 UNK         0.0786 
    121 H121       33.8629  -51.7143  -51.0631 H         1 UNK         0.0786 
    122 H122       32.8116  -48.2808  -52.0669 H         1 UNK         0.3032 
    123 H123       36.0204  -47.7672  -51.9490 H         1 UNK         0.1094 
    124 H124       35.3066  -47.8993  -54.9216 H         1 UNK         0.0794 
    125 H125       36.4345  -46.7363  -54.2240 H         1 UNK         0.0794 
    126 H126       36.7784  -48.4546  -54.1516 H         1 UNK         0.0794 
    127 H127       33.8623  -46.3620  -53.4085 H         1 UNK         0.3016 
@<TRIPOS>BOND
     1    1    2 1    
     2    1   67 1    
     3    1   68 1    
     4    1   69 1    
     5    2    3 2    
     6    2    4 am   BACKBONE|DICT|INTERRES
     7    4    5 1    
     8    4   70 1    
     9    5    6 1    
    10    5   65 1    
    11    5   71 1    
    12    6    7 1    
    13    6   72 1    
    14    6   73 1    
    15    7    8 1    
    16    8    9 1    
    17    8   74 1    
    18    8   75 1    
    19    9   10 ar   
    20    9   14 ar   
    21   10   11 ar   
    22   10   76 1    
    23   11   12 ar   
    24   11   48 1    
    25   12   13 ar   
    26   12   77 1    
    27   13   14 ar   
    28   13   15 1    
    29   14   78 1    
    30   15   16 1    
    31   15   79 1    
    32   15   80 1    
    33   16   17 1    
    34   17   18 1    
    35   17   81 1    
    36   17   82 1    
    37   18   19 1    
    38   18   22 1    
    39   18   83 1    
    40   19   20 am   BACKBONE|DICT|INTERRES
    41   19   21 2    
    42   20   84 1    
    43   20   85 1    
    44   22   23 am   BACKBONE|DICT|INTERRES
    45   22   86 1    
    46   23   24 2    
    47   23   25 1    
    48   25   26 1    
    49   25   27 1    
    50   25   87 1    
    51   26   88 1    
    52   26   89 1    
    53   26   90 1    
    54   27   28 am   BACKBONE|DICT|INTERRES
    55   27   91 1    
    56   28   29 2    
    57   28   30 1    
    58   30   31 1    
    59   30   32 1    
    60   30   92 1    
    61   31   93 1    
    62   31   94 1    
    63   31   95 1    
    64   32   33 am   BACKBONE|DICT|INTERRES
    65   32   96 1    
    66   33   34 2    
    67   33   35 1    
    68   35   36 1    
    69   35   37 1    
    70   35   97 1    
    71   36   98 1    
    72   36   99 1    
    73   36  100 1    
    74   37   38 am   BACKBONE|DICT|INTERRES
    75   37  101 1    
    76   38   39 2    
    77   38   40 1    
    78   40   41 1    
    79   40   42 1    
    80   40  102 1    
    81   41  103 1    
    82   41  104 1    
    83   41  105 1    
    84   42   43 am   BACKBONE|DICT|INTERRES
    85   42  106 1    
    86   43   44 2    
    87   43   45 1    
    88   45   46 1    
    89   45   49 1    
    90   45  107 1    
    91   46   47 1    
    92   46  108 1    
    93   46  109 1    
    94   47   48 1    
    95   48  110 1    
    96   48  111 1    
    97   49   50 am   BACKBONE|DICT|INTERRES
    98   49  112 1    
    99   50   51 2    
   100   50   52 1    
   101   52   53 1    
   102   52   54 1    
   103   52  113 1    
   104   53  114 1    
   105   53  115 1    
   106   53  116 1    
   107   54   55 am   BACKBONE|DICT|INTERRES
   108   54  117 1    
   109   55   56 2    
   110   55   57 1    
   111   57   58 1    
   112   57   59 1    
   113   57  118 1    
   114   58  119 1    
   115   58  120 1    
   116   58  121 1    
   117   59   60 am   BACKBONE|DICT|INTERRES
   118   59  122 1    
   119   60   61 2    
   120   60   62 1    
   121   62   63 1    
   122   62   64 1    
   123   62  123 1    
   124   63  124 1    
   125   63  125 1    
   126   63  126 1    
   127   64   65 am   BACKBONE|DICT|INTERRES
   128   64  127 1    
   129   65   66 2    
@<TRIPOS>SUBSTRUCTURE
     1 UNK         1 GROUP             0       ****    0 ROOT    
