@<TRIPOS>MOLECULE
3R134
127   129    1
SMALL
USER_CHARGES


@<TRIPOS>ATOM
      1 CA         35.9624  -46.6748  -56.1335 C.3       0 UNK        -0.1968 
      2 C          34.9060  -46.4108  -55.0724 C.2       0 UNK         0.4852 
      3 O          33.8610  -47.0660  -55.0820 O.2       0 UNK        -0.5359 
      4 N          35.1784  -45.4761  -54.1492 N.am      1 UNK        -0.4300 
      5 CA         34.2994  -45.0033  -53.0658 C.3       1 UNK         0.0863 
      6 C6         34.7843  -43.6436  -52.4938 C.3       11 UNK        -0.0953 
      7 S7         34.8349  -42.3115  -53.7415 S.3       11 UNK        -0.2369 
      8 C8         33.4495  -41.2477  -53.2201 C.3       11 UNK         0.0226 
      9 C9         32.1099  -41.7915  -53.6946 C.ar      11 UNK        -0.0699 
     10 C10        31.3999  -42.7096  -52.9167 C.ar      11 UNK        -0.0804 
     11 C11        30.1865  -43.2403  -53.3687 C.ar      11 UNK        -0.0871 
     12 C12        29.6658  -42.8148  -54.5961 C.ar      11 UNK        -0.1008 
     13 C13        30.3476  -41.8651  -55.3639 C.ar      11 UNK        -0.0735 
     14 C14        31.5731  -41.3661  -54.9126 C.ar      11 UNK        -0.0945 
     15 C15        29.7480  -41.3378  -56.6592 C.3       11 UNK         0.0169 
     16 S16        30.6475  -41.9220  -58.1289 S.3       11 UNK        -0.2669 
     17 C17        29.8854  -43.5583  -58.4016 C.3       11 UNK        -0.0850 
     18 CA         28.5830  -43.5123  -59.2553 C.3       10 UNK         0.0855 
     19 C          28.7968  -42.9036  -60.6662 C.2       10 UNK         0.5543 
     20 N          29.3629  -43.6500  -61.6085 N.am      10 UNK        -0.7343 
     21 O          28.4138  -41.7644  -60.9200 O.2       10 UNK        -0.5027 
     22 N          27.9382  -44.8241  -59.3835 N.am      10 UNK        -0.4495 
     23 C          27.3784  -45.5341  -58.4004 C.2       10 UNK         0.4903 
     24 O          27.3549  -45.1736  -57.2212 O.2       10 UNK        -0.4860 
     25 CA         26.7381  -46.8671  -58.8267 C.3       9 UNK         0.0227 
     26 CB         27.7546  -47.7742  -59.5482 C.3       9 UNK        -0.1964 
     27 N          26.2518  -47.5883  -57.6559 N.am      9 UNK        -0.4231 
     28 C          24.9785  -47.8374  -57.3345 C.2       9 UNK         0.5014 
     29 O          24.0129  -47.4730  -58.0095 O.2       9 UNK        -0.5270 
     30 CA         24.7643  -48.6454  -56.0367 C.3       8 UNK         0.0284 
     31 CB         23.3192  -49.1611  -55.8669 C.3       8 UNK        -0.1977 
     32 N          25.7392  -49.7356  -55.8905 N.am      8 UNK        -0.4342 
     33 C          25.9231  -50.7847  -56.7086 C.2       8 UNK         0.5039 
     34 O          25.1941  -51.0435  -57.6674 O.2       8 UNK        -0.5547 
     35 CA         27.1414  -51.6939  -56.4468 C.3       7 UNK         0.0281 
     36 CB         28.1765  -51.5298  -57.5727 C.3       7 UNK        -0.1963 
     37 N          27.8011  -51.4534  -55.1600 N.am      7 UNK        -0.4444 
     38 C          27.3262  -51.8514  -53.9718 C.2       7 UNK         0.5104 
     39 O          26.3007  -52.5182  -53.8322 O.2       7 UNK        -0.5100 
     40 CA         28.1085  -51.3988  -52.7253 C.3       6 UNK         0.0396 
     41 CB         29.2492  -52.3810  -52.4173 C.3       6 UNK        -0.1801 
     42 N          28.6537  -50.0436  -52.8464 N.am      6 UNK        -0.4747 
     43 C          27.9241  -48.9265  -52.9935 C.2       6 UNK         0.5012 
     44 O          26.6935  -48.9060  -53.0065 O.2       6 UNK        -0.5003 
     45 CA         28.7071  -47.6253  -53.2432 C.3       5 UNK         0.0782 
     46 C46        29.2597  -47.0368  -51.9186 C.3       11 UNK        -0.0868 
     47 S47        30.4857  -45.7138  -52.1801 S.3       11 UNK        -0.2515 
     48 C48        29.4378  -44.2688  -52.5301 C.3       11 UNK         0.0199 
     49 N          29.7408  -47.8273  -54.2603 N.am      5 UNK        -0.4607 
     50 C          29.5024  -48.0867  -55.5506 C.2       4 UNK         0.5031 
     51 O          28.3764  -48.2065  -56.0258 O.2       4 UNK        -0.5119 
     52 CA         30.7263  -48.2854  -56.4540 C.3       4 UNK         0.0263 
     53 CB         31.2108  -46.9337  -57.0010 C.3       4 UNK        -0.1967 
     54 N          31.8175  -48.9703  -55.7576 N.am      4 UNK        -0.4237 
     55 C          31.7473  -50.2443  -55.3399 C.2       3 UNK         0.4908 
     56 O          30.7783  -50.9780  -55.5388 O.2       3 UNK        -0.5102 
     57 CA         32.9337  -50.7761  -54.5225 C.3       3 UNK         0.0241 
     58 CB         34.1141  -51.1270  -55.4426 C.3       3 UNK        -0.1971 
     59 N          33.3788  -49.8406  -53.4880 N.am      3 UNK        -0.4139 
     60 C          32.6413  -49.4344  -52.4435 C.2       2 UNK         0.5016 
     61 O          31.4851  -49.7978  -52.2298 O.2       2 UNK        -0.5319 
     62 CA         33.2943  -48.3985  -51.5255 C.3       2 UNK         0.0286 
     63 CB         34.4685  -49.0031  -50.7311 C.3       2 UNK        -0.1963 
     64 N          33.7224  -47.2741  -52.3503 N.am      2 UNK        -0.4790 
     65 C          34.0818  -46.0550  -51.9465 C.2       1 UNK         0.5024 
     66 O          34.2229  -45.7493  -50.7610 O.2       1 UNK        -0.4888 
     67 H67        35.5460  -46.4984  -57.1248 H         1 UNK         0.0892 
     68 H68        36.2934  -47.7116  -56.0823 H         1 UNK         0.0892 
     69 H69        36.8340  -46.0322  -56.0118 H         1 UNK         0.0892 
     70 H70        36.0660  -44.9971  -54.2004 H         1 UNK         0.3107 
     71 H71        33.3139  -44.8374  -53.5066 H         1 UNK         0.0773 
     72 H72        35.7858  -43.7479  -52.0727 H         1 UNK         0.0680 
     73 H73        34.1493  -43.3213  -51.6673 H         1 UNK         0.0680 
     74 H74        33.4533  -41.1270  -52.1359 H         1 UNK         0.0650 
     75 H75        33.6077  -40.2498  -53.6320 H         1 UNK         0.0650 
     76 H76        31.8014  -43.0328  -51.9663 H         1 UNK         0.1397 
     77 H77        28.7228  -43.2108  -54.9491 H         1 UNK         0.1363 
     78 H78        32.1077  -40.6418  -55.5122 H         1 UNK         0.1355 
     79 H79        29.7818  -40.2475  -56.6438 H         1 UNK         0.0707 
     80 H80        28.6932  -41.6049  -56.7405 H         1 UNK         0.0707 
     81 H81        29.6919  -44.0071  -57.4268 H         1 UNK         0.1034 
     82 H82        30.6252  -44.2019  -58.8800 H         1 UNK         0.1034 
     83 H83        27.8700  -42.8658  -58.7399 H         1 UNK         0.0482 
     84 H84        29.4876  -43.2582  -62.5291 H         1 UNK         0.3460 
     85 H85        29.7246  -44.5682  -61.4060 H         1 UNK         0.3460 
     86 H86        27.8683  -45.1640  -60.3327 H         1 UNK         0.2989 
     87 H87        25.9136  -46.6448  -59.5067 H         1 UNK         0.0559 
     88 H88        28.6447  -47.9442  -58.9412 H         1 UNK         0.0848 
     89 H89        28.0797  -47.3442  -60.4957 H         1 UNK         0.0848 
     90 H90        27.3201  -48.7482  -59.7753 H         1 UNK         0.0848 
     91 H91        26.9796  -47.8618  -56.9929 H         1 UNK         0.3144 
     92 H92        24.9634  -47.9541  -55.2164 H         1 UNK         0.0727 
     93 H93        23.2034  -49.7137  -54.9345 H         1 UNK         0.0790 
     94 H94        23.0228  -49.8172  -56.6857 H         1 UNK         0.0790 
     95 H95        22.6103  -48.3327  -55.8427 H         1 UNK         0.0790 
     96 H96        26.4068  -49.6122  -55.1390 H         1 UNK         0.3215 
     97 H97        26.7836  -52.7257  -56.4613 H         1 UNK         0.0863 
     98 H98        29.0250  -52.2002  -57.4344 H         1 UNK         0.0808 
     99 H99        28.5589  -50.5101  -57.6207 H         1 UNK         0.0808 
    100 H100       27.7384  -51.7585  -58.5451 H         1 UNK         0.0808 
    101 H101       28.6918  -50.9675  -55.1874 H         1 UNK         0.3118 
    102 H102       27.4172  -51.4024  -51.8802 H         1 UNK         0.0546 
    103 H103       28.8704  -53.3970  -52.2991 H         1 UNK         0.0828 
    104 H104       29.7614  -52.1156  -51.4923 H         1 UNK         0.0828 
    105 H105       29.9925  -52.3988  -53.2154 H         1 UNK         0.0828 
    106 H106       29.6680  -49.9582  -52.8117 H         1 UNK         0.3005 
    107 H107       27.9973  -46.9051  -53.6567 H         1 UNK         0.1257 
    108 H108       29.7548  -47.8106  -51.3286 H         1 UNK         0.0775 
    109 H109       28.4463  -46.6575  -51.2972 H         1 UNK         0.0775 
    110 H110       28.5320  -44.5908  -53.0452 H         1 UNK         0.0840 
    111 H111       29.1191  -43.8154  -51.5906 H         1 UNK         0.0840 
    112 H112       30.6956  -47.7501  -53.9445 H         1 UNK         0.2987 
    113 H113       30.4239  -48.9074  -57.2987 H         1 UNK         0.0785 
    114 H114       30.4252  -46.4507  -57.5828 H         1 UNK         0.0798 
    115 H115       32.0737  -47.0549  -57.6558 H         1 UNK         0.0798 
    116 H116       31.4914  -46.2481  -56.2000 H         1 UNK         0.0798 
    117 H117       32.6403  -48.4113  -55.5398 H         1 UNK         0.3079 
    118 H118       32.6054  -51.6900  -54.0227 H         1 UNK         0.0794 
    119 H119       34.5154  -50.2442  -55.9425 H         1 UNK         0.0786 
    120 H120       33.8078  -51.8305  -56.2183 H         1 UNK         0.0786 
    121 H121       34.9256  -51.5955  -54.8854 H         1 UNK         0.0786 
    122 H122       34.3167  -49.4789  -53.5815 H         1 UNK         0.3032 
    123 H123       32.5342  -48.0450  -50.8250 H         1 UNK         0.1094 
    124 H124       34.8577  -48.2976  -49.9971 H         1 UNK         0.0794 
    125 H125       34.1509  -49.8914  -50.1832 H         1 UNK         0.0794 
    126 H126       35.2941  -49.2955  -51.3805 H         1 UNK         0.0794 
    127 H127       33.6277  -47.3924  -53.3590 H         1 UNK         0.3016 
@<TRIPOS>BOND
     1    1    2 1    
     2    1   67 1    
     3    1   68 1    
     4    1   69 1    
     5    2    3 2    
     6    2    4 am   BACKBONE|DICT|INTERRES
     7    4    5 1    
     8    4   70 1    
     9    5    6 1    
    10    5   65 1    
    11    5   71 1    
    12    6    7 1    
    13    6   72 1    
    14    6   73 1    
    15    7    8 1    
    16    8    9 1    
    17    8   74 1    
    18    8   75 1    
    19    9   10 ar   
    20    9   14 ar   
    21   10   11 ar   
    22   10   76 1    
    23   11   12 ar   
    24   11   48 1    
    25   12   13 ar   
    26   12   77 1    
    27   13   14 ar   
    28   13   15 1    
    29   14   78 1    
    30   15   16 1    
    31   15   79 1    
    32   15   80 1    
    33   16   17 1    
    34   17   18 1    
    35   17   81 1    
    36   17   82 1    
    37   18   19 1    
    38   18   22 1    
    39   18   83 1    
    40   19   20 am   BACKBONE|DICT|INTERRES
    41   19   21 2    
    42   20   84 1    
    43   20   85 1    
    44   22   23 am   BACKBONE|DICT|INTERRES
    45   22   86 1    
    46   23   24 2    
    47   23   25 1    
    48   25   26 1    
    49   25   27 1    
    50   25   87 1    
    51   26   88 1    
    52   26   89 1    
    53   26   90 1    
    54   27   28 am   BACKBONE|DICT|INTERRES
    55   27   91 1    
    56   28   29 2    
    57   28   30 1    
    58   30   31 1    
    59   30   32 1    
    60   30   92 1    
    61   31   93 1    
    62   31   94 1    
    63   31   95 1    
    64   32   33 am   BACKBONE|DICT|INTERRES
    65   32   96 1    
    66   33   34 2    
    67   33   35 1    
    68   35   36 1    
    69   35   37 1    
    70   35   97 1    
    71   36   98 1    
    72   36   99 1    
    73   36  100 1    
    74   37   38 am   BACKBONE|DICT|INTERRES
    75   37  101 1    
    76   38   39 2    
    77   38   40 1    
    78   40   41 1    
    79   40   42 1    
    80   40  102 1    
    81   41  103 1    
    82   41  104 1    
    83   41  105 1    
    84   42   43 am   BACKBONE|DICT|INTERRES
    85   42  106 1    
    86   43   44 2    
    87   43   45 1    
    88   45   46 1    
    89   45   49 1    
    90   45  107 1    
    91   46   47 1    
    92   46  108 1    
    93   46  109 1    
    94   47   48 1    
    95   48  110 1    
    96   48  111 1    
    97   49   50 am   BACKBONE|DICT|INTERRES
    98   49  112 1    
    99   50   51 2    
   100   50   52 1    
   101   52   53 1    
   102   52   54 1    
   103   52  113 1    
   104   53  114 1    
   105   53  115 1    
   106   53  116 1    
   107   54   55 am   BACKBONE|DICT|INTERRES
   108   54  117 1    
   109   55   56 2    
   110   55   57 1    
   111   57   58 1    
   112   57   59 1    
   113   57  118 1    
   114   58  119 1    
   115   58  120 1    
   116   58  121 1    
   117   59   60 am   BACKBONE|DICT|INTERRES
   118   59  122 1    
   119   60   61 2    
   120   60   62 1    
   121   62   63 1    
   122   62   64 1    
   123   62  123 1    
   124   63  124 1    
   125   63  125 1    
   126   63  126 1    
   127   64   65 am   BACKBONE|DICT|INTERRES
   128   64  127 1    
   129   65   66 2    
@<TRIPOS>SUBSTRUCTURE
     1 UNK         1 GROUP             0       ****    0 ROOT    
