@<TRIPOS>MOLECULE
3R134
127   129    1
SMALL
USER_CHARGES


@<TRIPOS>ATOM
      1 CA         34.1469  -44.5454  -46.9049 C.3       0 UNK        -0.1968 
      2 C          34.4455  -44.8049  -48.3744 C.2       0 UNK         0.4852 
      3 O          35.6148  -44.8852  -48.7555 O.2       0 UNK        -0.5359 
      4 N          33.3993  -44.9267  -49.2011 N.am      1 UNK        -0.4300 
      5 CA         33.4925  -45.2235  -50.6344 C.3       1 UNK         0.0863 
      6 C6         32.1640  -44.9345  -51.3781 C.3       11 UNK        -0.0953 
      7 S7         31.5835  -43.2207  -51.1695 S.3       11 UNK        -0.2369 
      8 C8         32.5347  -42.3522  -52.4561 C.3       11 UNK         0.0226 
      9 C9         32.1026  -42.7180  -53.8707 C.ar      11 UNK        -0.0699 
     10 C10        33.0181  -43.2772  -54.7675 C.ar      11 UNK        -0.0804 
     11 C11        32.6534  -43.5326  -56.0940 C.ar      11 UNK        -0.0871 
     12 C12        31.3483  -43.2425  -56.5141 C.ar      11 UNK        -0.1008 
     13 C13        30.4200  -42.6937  -55.6220 C.ar      11 UNK        -0.0735 
     14 C14        30.8051  -42.4343  -54.3039 C.ar      11 UNK        -0.0945 
     15 C15        29.0149  -42.3248  -56.0778 C.3       11 UNK         0.0169 
     16 S16        27.8245  -43.6606  -55.7450 S.3       11 UNK        -0.2669 
     17 C17        27.8533  -44.5882  -57.3173 C.3       11 UNK        -0.0850 
     18 CA         26.4665  -44.5916  -58.0078 C.3       10 UNK         0.0855 
     19 C          26.5566  -44.9830  -59.5138 C.2       10 UNK         0.5543 
     20 N          25.7413  -45.8954  -60.0288 N.am      10 UNK        -0.7343 
     21 O          27.3705  -44.4228  -60.2441 O.2       10 UNK        -0.5027 
     22 N          25.5051  -45.3937  -57.2348 N.am      10 UNK        -0.4495 
     23 C          24.1926  -45.1540  -57.1615 C.2       10 UNK         0.4903 
     24 O          23.6409  -44.1825  -57.6822 O.2       10 UNK        -0.4860 
     25 CA         23.3626  -46.1993  -56.3898 C.3       9 UNK         0.0227 
     26 CB         21.8431  -45.9422  -56.4809 C.3       9 UNK        -0.1964 
     27 N          23.6703  -47.5832  -56.7806 N.am      9 UNK        -0.4231 
     28 C          23.6193  -48.1111  -58.0150 C.2       9 UNK         0.5014 
     29 O          23.3381  -47.4664  -59.0270 O.2       9 UNK        -0.5270 
     30 CA         23.9357  -49.6168  -58.1289 C.3       8 UNK         0.0284 
     31 CB         24.1881  -50.0738  -59.5828 C.3       8 UNK        -0.1977 
     32 N          25.0275  -50.0450  -57.2438 N.am      8 UNK        -0.4342 
     33 C          26.3007  -49.6240  -57.2697 C.2       8 UNK         0.5039 
     34 O          26.7569  -48.8363  -58.1008 O.2       8 UNK        -0.5547 
     35 CA         27.2171  -50.2171  -56.1829 C.3       7 UNK         0.0281 
     36 CB         27.8917  -51.4961  -56.7073 C.3       7 UNK        -0.1963 
     37 N          28.2502  -49.2942  -55.7006 N.am      7 UNK        -0.4444 
     38 C          28.0551  -48.0454  -55.2508 C.2       7 UNK         0.5104 
     39 O          26.9491  -47.5066  -55.1617 O.2       7 UNK        -0.5100 
     40 CA         29.3032  -47.2631  -54.7989 C.3       6 UNK         0.0396 
     41 CB         29.4828  -47.3790  -53.2782 C.3       6 UNK        -0.1801 
     42 N          30.5514  -47.6611  -55.4558 N.am      6 UNK        -0.4747 
     43 C          30.8258  -47.5278  -56.7630 C.2       6 UNK         0.5012 
     44 O          30.0238  -47.1267  -57.6035 O.2       6 UNK        -0.5003 
     45 CA         32.2422  -47.9246  -57.2107 C.3       5 UNK         0.0782 
     46 C46        33.2779  -46.8204  -56.8828 C.3       11 UNK        -0.0868 
     47 S47        33.1862  -45.4521  -58.0845 S.3       11 UNK        -0.2515 
     48 C48        33.7086  -44.0248  -57.0817 C.3       11 UNK         0.0199 
     49 N          32.6088  -49.2171  -56.6322 N.am      5 UNK        -0.4607 
     50 C          32.2950  -50.3995  -57.1804 C.2       4 UNK         0.5031 
     51 O          31.7506  -50.5211  -58.2777 O.2       4 UNK        -0.5119 
     52 CA         32.6410  -51.6686  -56.3799 C.3       4 UNK         0.0263 
     53 CB         33.9849  -52.2484  -56.8499 C.3       4 UNK        -0.1967 
     54 N          32.6883  -51.4561  -54.9318 N.am      4 UNK        -0.4237 
     55 C          31.6301  -51.1434  -54.1708 C.2       3 UNK         0.4908 
     56 O          30.4830  -51.0285  -54.5999 O.2       3 UNK        -0.5102 
     57 CA         31.9128  -50.8551  -52.6875 C.3       3 UNK         0.0241 
     58 CB         31.9023  -52.1584  -51.8728 C.3       3 UNK        -0.1971 
     59 N          33.1688  -50.1326  -52.4477 N.am      3 UNK        -0.4139 
     60 C          33.4773  -48.9388  -52.9729 C.2       2 UNK         0.5016 
     61 O          32.7734  -48.3425  -53.7918 O.2       2 UNK        -0.5319 
     62 CA         34.7981  -48.2957  -52.5267 C.3       2 UNK         0.0286 
     63 CB         35.7861  -48.2224  -53.7026 C.3       2 UNK        -0.1963 
     64 N          34.5405  -46.9462  -52.0239 N.am      2 UNK        -0.4790 
     65 C          33.9059  -46.6886  -50.8725 C.2       1 UNK         0.5024 
     66 O          33.6019  -47.5590  -50.0515 O.2       1 UNK        -0.4888 
     67 H67        34.6034  -43.6076  -46.5891 H         1 UNK         0.0892 
     68 H68        34.5562  -45.3479  -46.2918 H         1 UNK         0.0892 
     69 H69        33.0762  -44.4830  -46.7110 H         1 UNK         0.0892 
     70 H70        32.4616  -44.8626  -48.8321 H         1 UNK         0.3107 
     71 H71        34.2708  -44.5838  -51.0559 H         1 UNK         0.0773 
     72 H72        32.2588  -45.1462  -52.4450 H         1 UNK         0.0680 
     73 H73        31.3739  -45.5927  -51.0115 H         1 UNK         0.0680 
     74 H74        32.4008  -41.2785  -52.3184 H         1 UNK         0.0650 
     75 H75        33.5978  -42.5461  -52.3072 H         1 UNK         0.0650 
     76 H76        34.0304  -43.4743  -54.4423 H         1 UNK         0.1397 
     77 H77        31.0638  -43.4217  -57.5419 H         1 UNK         0.1363 
     78 H78        30.0974  -41.9933  -53.6151 H         1 UNK         0.1355 
     79 H79        29.0074  -42.0561  -57.1352 H         1 UNK         0.0707 
     80 H80        28.6846  -41.4316  -55.5453 H         1 UNK         0.0707 
     81 H81        28.1530  -45.6121  -57.1086 H         1 UNK         0.1034 
     82 H82        28.6279  -44.1788  -57.9676 H         1 UNK         0.1034 
     83 H83        26.1150  -43.5580  -58.0182 H         1 UNK         0.0482 
     84 H84        25.0364  -46.3512  -59.4620 H         1 UNK         0.3460 
     85 H85        25.8182  -46.1237  -61.0066 H         1 UNK         0.3460 
     86 H86        25.8785  -46.2193  -56.7823 H         1 UNK         0.2989 
     87 H87        23.6515  -46.1036  -55.3420 H         1 UNK         0.0559 
     88 H88        21.2811  -46.6673  -55.8926 H         1 UNK         0.0848 
     89 H89        21.4853  -45.9956  -57.5098 H         1 UNK         0.0848 
     90 H90        21.5898  -44.9521  -56.0996 H         1 UNK         0.0848 
     91 H91        23.9596  -48.1918  -56.0274 H         1 UNK         0.3144 
     92 H92        23.0411  -50.1340  -57.7789 H         1 UNK         0.0727 
     93 H93        24.3920  -51.1433  -59.6335 H         1 UNK         0.0790 
     94 H94        25.0319  -49.5493  -60.0322 H         1 UNK         0.0790 
     95 H95        23.3167  -49.8812  -60.2098 H         1 UNK         0.0790 
     96 H96        24.7642  -50.7098  -56.5283 H         1 UNK         0.3215 
     97 H97        26.6018  -50.4774  -55.3194 H         1 UNK         0.0863 
     98 H98        28.4200  -52.0224  -55.9127 H         1 UNK         0.0808 
     99 H99        28.6092  -51.2745  -57.4988 H         1 UNK         0.0808 
    100 H100       27.1583  -52.1921  -57.1169 H         1 UNK         0.0808 
    101 H101       29.1952  -49.6582  -55.6691 H         1 UNK         0.3118 
    102 H102       29.1387  -46.2114  -55.0335 H         1 UNK         0.0546 
    103 H103       28.5972  -47.0204  -52.7520 H         1 UNK         0.0828 
    104 H104       30.3283  -46.7844  -52.9339 H         1 UNK         0.0828 
    105 H105       29.6512  -48.4115  -52.9721 H         1 UNK         0.0828 
    106 H106       31.2989  -47.9814  -54.8424 H         1 UNK         0.3005 
    107 H107       32.2137  -48.0405  -58.2973 H         1 UNK         0.1257 
    108 H108       34.2891  -47.2265  -56.9369 H         1 UNK         0.0775 
    109 H109       33.1573  -46.4445  -55.8644 H         1 UNK         0.0775 
    110 H110       34.6380  -44.2798  -56.5698 H         1 UNK         0.0840 
    111 H111       33.9512  -43.2028  -57.7564 H         1 UNK         0.0840 
    112 H112       32.9899  -49.1916  -55.6946 H         1 UNK         0.2987 
    113 H113       31.8596  -52.4042  -56.5835 H         1 UNK         0.0785 
    114 H114       34.8113  -51.5634  -56.6552 H         1 UNK         0.0798 
    115 H115       33.9709  -52.4448  -57.9230 H         1 UNK         0.0798 
    116 H116       34.2058  -53.1935  -56.3532 H         1 UNK         0.0798 
    117 H117       33.5927  -51.5253  -54.4887 H         1 UNK         0.3079 
    118 H118       31.1026  -50.2222  -52.3212 H         1 UNK         0.0794 
    119 H119       32.7181  -52.8231  -52.1598 H         1 UNK         0.0786 
    120 H120       30.9693  -52.7040  -52.0220 H         1 UNK         0.0786 
    121 H121       31.9902  -51.9596  -50.8044 H         1 UNK         0.0786 
    122 H122       33.8032  -50.5470  -51.7797 H         1 UNK         0.3032 
    123 H123       35.2464  -48.8911  -51.7277 H         1 UNK         0.1094 
    124 H124       36.0024  -49.2174  -54.0940 H         1 UNK         0.0794 
    125 H125       36.7356  -47.7833  -53.3955 H         1 UNK         0.0794 
    126 H126       35.3930  -47.6264  -54.5275 H         1 UNK         0.0794 
    127 H127       34.7207  -46.1873  -52.6647 H         1 UNK         0.3016 
@<TRIPOS>BOND
     1    1    2 1    
     2    1   67 1    
     3    1   68 1    
     4    1   69 1    
     5    2    3 2    
     6    2    4 am   BACKBONE|DICT|INTERRES
     7    4    5 1    
     8    4   70 1    
     9    5    6 1    
    10    5   65 1    
    11    5   71 1    
    12    6    7 1    
    13    6   72 1    
    14    6   73 1    
    15    7    8 1    
    16    8    9 1    
    17    8   74 1    
    18    8   75 1    
    19    9   10 ar   
    20    9   14 ar   
    21   10   11 ar   
    22   10   76 1    
    23   11   12 ar   
    24   11   48 1    
    25   12   13 ar   
    26   12   77 1    
    27   13   14 ar   
    28   13   15 1    
    29   14   78 1    
    30   15   16 1    
    31   15   79 1    
    32   15   80 1    
    33   16   17 1    
    34   17   18 1    
    35   17   81 1    
    36   17   82 1    
    37   18   19 1    
    38   18   22 1    
    39   18   83 1    
    40   19   20 am   BACKBONE|DICT|INTERRES
    41   19   21 2    
    42   20   84 1    
    43   20   85 1    
    44   22   23 am   BACKBONE|DICT|INTERRES
    45   22   86 1    
    46   23   24 2    
    47   23   25 1    
    48   25   26 1    
    49   25   27 1    
    50   25   87 1    
    51   26   88 1    
    52   26   89 1    
    53   26   90 1    
    54   27   28 am   BACKBONE|DICT|INTERRES
    55   27   91 1    
    56   28   29 2    
    57   28   30 1    
    58   30   31 1    
    59   30   32 1    
    60   30   92 1    
    61   31   93 1    
    62   31   94 1    
    63   31   95 1    
    64   32   33 am   BACKBONE|DICT|INTERRES
    65   32   96 1    
    66   33   34 2    
    67   33   35 1    
    68   35   36 1    
    69   35   37 1    
    70   35   97 1    
    71   36   98 1    
    72   36   99 1    
    73   36  100 1    
    74   37   38 am   BACKBONE|DICT|INTERRES
    75   37  101 1    
    76   38   39 2    
    77   38   40 1    
    78   40   41 1    
    79   40   42 1    
    80   40  102 1    
    81   41  103 1    
    82   41  104 1    
    83   41  105 1    
    84   42   43 am   BACKBONE|DICT|INTERRES
    85   42  106 1    
    86   43   44 2    
    87   43   45 1    
    88   45   46 1    
    89   45   49 1    
    90   45  107 1    
    91   46   47 1    
    92   46  108 1    
    93   46  109 1    
    94   47   48 1    
    95   48  110 1    
    96   48  111 1    
    97   49   50 am   BACKBONE|DICT|INTERRES
    98   49  112 1    
    99   50   51 2    
   100   50   52 1    
   101   52   53 1    
   102   52   54 1    
   103   52  113 1    
   104   53  114 1    
   105   53  115 1    
   106   53  116 1    
   107   54   55 am   BACKBONE|DICT|INTERRES
   108   54  117 1    
   109   55   56 2    
   110   55   57 1    
   111   57   58 1    
   112   57   59 1    
   113   57  118 1    
   114   58  119 1    
   115   58  120 1    
   116   58  121 1    
   117   59   60 am   BACKBONE|DICT|INTERRES
   118   59  122 1    
   119   60   61 2    
   120   60   62 1    
   121   62   63 1    
   122   62   64 1    
   123   62  123 1    
   124   63  124 1    
   125   63  125 1    
   126   63  126 1    
   127   64   65 am   BACKBONE|DICT|INTERRES
   128   64  127 1    
   129   65   66 2    
@<TRIPOS>SUBSTRUCTURE
     1 UNK         1 GROUP             0       ****    0 ROOT    
