@<TRIPOS>MOLECULE
3R134
127   129    1
SMALL
USER_CHARGES


@<TRIPOS>ATOM
      1 CA         29.3595  -43.9062  -51.5530 C.3       0 UNK        -0.1968 
      2 C          30.7068  -44.2834  -50.9559 C.2       0 UNK         0.4852 
      3 O          30.8178  -44.4358  -49.7380 O.2       0 UNK        -0.5359 
      4 N          31.7324  -44.4212  -51.8060 N.am      1 UNK        -0.4300 
      5 CA         33.0886  -44.8266  -51.4200 C.3       1 UNK         0.0863 
      6 C6         34.1373  -44.4631  -52.5028 C.3       11 UNK        -0.0953 
      7 S7         34.1637  -42.6707  -52.8531 S.3       11 UNK        -0.2369 
      8 C8         34.3081  -42.6186  -54.6727 C.3       11 UNK         0.0226 
      9 C9         33.1977  -43.3676  -55.4037 C.ar      11 UNK        -0.0699 
     10 C10        33.5222  -44.2465  -56.4409 C.ar      11 UNK        -0.0804 
     11 C11        32.5212  -44.9499  -57.1148 C.ar      11 UNK        -0.0871 
     12 C12        31.1861  -44.7841  -56.7353 C.ar      11 UNK        -0.1008 
     13 C13        30.8421  -43.8969  -55.7090 C.ar      11 UNK        -0.0735 
     14 C14        31.8547  -43.1836  -55.0586 C.ar      11 UNK        -0.0945 
     15 C15        29.3989  -43.7192  -55.2471 C.3       11 UNK         0.0169 
     16 S16        28.1518  -43.7647  -56.5779 S.3       11 UNK        -0.2669 
     17 C17        26.6816  -43.2669  -55.6180 C.3       11 UNK        -0.0850 
     18 CA         25.9256  -44.4849  -55.0058 C.3       10 UNK         0.0855 
     19 C          25.0561  -44.1067  -53.7650 C.2       10 UNK         0.5543 
     20 N          23.9471  -44.7880  -53.5024 N.am      10 UNK        -0.7343 
     21 O          25.4069  -43.2093  -53.0027 O.2       10 UNK        -0.5027 
     22 N          25.2272  -45.3078  -56.0145 N.am      10 UNK        -0.4495 
     23 C          24.1851  -44.9098  -56.7615 C.2       10 UNK         0.4903 
     24 O          23.7397  -43.7607  -56.7501 O.2       10 UNK        -0.4860 
     25 CA         23.4816  -45.9788  -57.6241 C.3       9 UNK         0.0227 
     26 CB         22.5712  -45.3676  -58.7117 C.3       9 UNK        -0.1964 
     27 N          24.3805  -46.9788  -58.2084 N.am      9 UNK        -0.4231 
     28 C          25.3809  -46.7839  -59.0781 C.2       9 UNK         0.5014 
     29 O          25.7288  -45.6767  -59.4920 O.2       9 UNK        -0.5270 
     30 CA         26.0992  -48.0585  -59.5718 C.3       8 UNK         0.0284 
     31 CB         27.2364  -47.7520  -60.5645 C.3       8 UNK        -0.1977 
     32 N          26.6277  -48.8580  -58.4615 N.am      8 UNK        -0.4342 
     33 C          25.8953  -49.6449  -57.6559 C.2       8 UNK         0.5039 
     34 O          24.6842  -49.8151  -57.8061 O.2       8 UNK        -0.5547 
     35 CA         26.5953  -50.3166  -56.4579 C.3       7 UNK         0.0281 
     36 CB         26.9259  -51.7810  -56.7844 C.3       7 UNK        -0.1963 
     37 N          27.8135  -49.6260  -56.0300 N.am      7 UNK        -0.4444 
     38 C          27.8542  -48.3681  -55.5625 C.2       7 UNK         0.5104 
     39 O          26.8454  -47.7080  -55.3119 O.2       7 UNK        -0.5100 
     40 CA         29.2393  -47.7098  -55.4069 C.3       6 UNK         0.0396 
     41 CB         29.6183  -47.5667  -53.9257 C.3       6 UNK        -0.1801 
     42 N          30.3161  -48.4030  -56.1252 N.am      6 UNK        -0.4747 
     43 C          30.3766  -48.5612  -57.4593 C.2       6 UNK         0.5012 
     44 O          29.5437  -48.0847  -58.2296 O.2       6 UNK        -0.5003 
     45 CA         31.5018  -49.4518  -58.0358 C.3       5 UNK         0.0782 
     46 C46        32.5956  -48.6335  -58.7636 C.3       11 UNK        -0.0868 
     47 S47        33.5008  -47.4768  -57.6751 S.3       11 UNK        -0.2515 
     48 C48        32.8801  -45.8707  -58.2688 C.3       11 UNK         0.0199 
     49 N          32.0808  -50.3745  -57.0559 N.am      5 UNK        -0.4607 
     50 C          31.4218  -51.3694  -56.4471 C.2       4 UNK         0.5031 
     51 O          30.2386  -51.6313  -56.6627 O.2       4 UNK        -0.5119 
     52 CA         32.1980  -52.1870  -55.3990 C.3       4 UNK         0.0263 
     53 CB         32.6925  -53.5071  -56.0116 C.3       4 UNK        -0.1967 
     54 N          33.3338  -51.4753  -54.7974 N.am      4 UNK        -0.4237 
     55 C          33.2339  -50.3579  -54.0649 C.2       3 UNK         0.4908 
     56 O          32.1720  -49.7662  -53.8557 O.2       3 UNK        -0.5102 
     57 CA         34.5408  -49.7881  -53.5070 C.3       3 UNK         0.0241 
     58 CB         35.1960  -48.8271  -54.5146 C.3       3 UNK        -0.1971 
     59 N          34.2359  -49.0702  -52.2761 N.am      3 UNK        -0.4139 
     60 C          35.0359  -48.9416  -51.2145 C.2       2 UNK         0.5016 
     61 O          36.1810  -49.3957  -51.1637 O.2       2 UNK        -0.5319 
     62 CA         34.4597  -48.1509  -50.0211 C.3       2 UNK         0.0286 
     63 CB         35.3853  -48.1772  -48.7898 C.3       2 UNK        -0.1963 
     64 N          34.1838  -46.7544  -50.3743 N.am      2 UNK        -0.4790 
     65 C          33.1395  -46.3344  -51.1008 C.2       1 UNK         0.5024 
     66 O          32.2711  -47.0946  -51.5377 O.2       1 UNK        -0.4888 
     67 H67        28.8923  -44.7744  -52.0168 H         1 UNK         0.0892 
     68 H68        29.4707  -43.1226  -52.3011 H         1 UNK         0.0892 
     69 H69        28.6875  -43.5333  -50.7802 H         1 UNK         0.0892 
     70 H70        31.5835  -44.3139  -52.7980 H         1 UNK         0.3107 
     71 H71        33.3487  -44.2906  -50.5043 H         1 UNK         0.0773 
     72 H72        35.1409  -44.7452  -52.1797 H         1 UNK         0.0680 
     73 H73        33.9481  -45.0246  -53.4193 H         1 UNK         0.0680 
     74 H74        34.2977  -41.5767  -54.9945 H         1 UNK         0.0650 
     75 H75        35.2862  -43.0168  -54.9471 H         1 UNK         0.0650 
     76 H76        34.5556  -44.3860  -56.7282 H         1 UNK         0.1397 
     77 H77        30.4151  -45.3422  -57.2483 H         1 UNK         0.1363 
     78 H78        31.6023  -42.4910  -54.2671 H         1 UNK         0.1355 
     79 H79        29.3034  -42.7666  -54.7243 H         1 UNK         0.0707 
     80 H80        29.1676  -44.5015  -54.5242 H         1 UNK         0.0707 
     81 H81        26.0257  -42.6827  -56.2636 H         1 UNK         0.1034 
     82 H82        27.0057  -42.5684  -54.8453 H         1 UNK         0.1034 
     83 H83        26.6828  -45.1432  -54.5800 H         1 UNK         0.0482 
     84 H84        23.6582  -45.5439  -54.1017 H         1 UNK         0.3460 
     85 H85        23.3989  -44.5459  -52.6921 H         1 UNK         0.3460 
     86 H86        25.5411  -46.2709  -56.0629 H         1 UNK         0.2989 
     87 H87        22.8372  -46.5302  -56.9380 H         1 UNK         0.0559 
     88 H88        22.0613  -46.1416  -59.2852 H         1 UNK         0.0848 
     89 H89        23.1361  -44.7492  -59.4101 H         1 UNK         0.0848 
     90 H90        21.7999  -44.7357  -58.2697 H         1 UNK         0.0848 
     91 H91        24.2122  -47.9447  -57.9343 H         1 UNK         0.3144 
     92 H92        25.3566  -48.6572  -60.1038 H         1 UNK         0.0727 
     93 H93        27.7333  -48.6636  -60.8967 H         1 UNK         0.0790 
     94 H94        27.9910  -47.0986  -60.1252 H         1 UNK         0.0790 
     95 H95        26.8519  -47.2500  -61.4532 H         1 UNK         0.0790 
     96 H96        27.6119  -48.7207  -58.2511 H         1 UNK         0.3215 
     97 H97        25.8945  -50.3005  -55.6204 H         1 UNK         0.0863 
     98 H98        27.3706  -52.2893  -55.9285 H         1 UNK         0.0808 
     99 H99        27.6229  -51.8603  -57.6197 H         1 UNK         0.0808 
    100 H100       26.0255  -52.3333  -57.0573 H         1 UNK         0.0808 
    101 H101       28.6894  -50.1086  -56.1956 H         1 UNK         0.3118 
    102 H102       29.1533  -46.7087  -55.8299 H         1 UNK         0.0546 
    103 H103       28.8515  -47.0201  -53.3757 H         1 UNK         0.0828 
    104 H104       30.5543  -47.0200  -53.8070 H         1 UNK         0.0828 
    105 H105       29.7359  -48.5378  -53.4437 H         1 UNK         0.0828 
    106 H106       31.0317  -48.8372  -55.5527 H         1 UNK         0.3005 
    107 H107       31.0172  -50.0755  -58.7910 H         1 UNK         0.1257 
    108 H108       32.1650  -48.1030  -59.6141 H         1 UNK         0.0775 
    109 H109       33.3271  -49.3148  -59.2011 H         1 UNK         0.0775 
    110 H110       33.6425  -45.4040  -58.8943 H         1 UNK         0.0840 
    111 H111       32.0066  -46.0022  -58.9086 H         1 UNK         0.0840 
    112 H112       33.0447  -50.2093  -56.8072 H         1 UNK         0.2987 
    113 H113       31.4963  -52.4241  -54.5964 H         1 UNK         0.0785 
    114 H114       33.4200  -53.3366  -56.8064 H         1 UNK         0.0798 
    115 H115       31.8645  -54.0711  -56.4437 H         1 UNK         0.0798 
    116 H116       33.1574  -54.1453  -55.2599 H         1 UNK         0.0798 
    117 H117       34.2462  -51.8876  -54.9335 H         1 UNK         0.3079 
    118 H118       35.2197  -50.6158  -53.2900 H         1 UNK         0.0794 
    119 H119       34.5460  -47.9805  -54.7417 H         1 UNK         0.0786 
    120 H120       35.4184  -49.3311  -55.4559 H         1 UNK         0.0786 
    121 H121       36.1357  -48.4307  -54.1298 H         1 UNK         0.0786 
    122 H122       33.3030  -48.6643  -52.2380 H         1 UNK         0.3032 
    123 H123       33.5214  -48.6349  -49.7393 H         1 UNK         0.1094 
    124 H124       36.3440  -47.6981  -48.9926 H         1 UNK         0.0794 
    125 H125       34.9293  -47.6697  -47.9395 H         1 UNK         0.0794 
    126 H126       35.5922  -49.2022  -48.4789 H         1 UNK         0.0794 
    127 H127       34.8729  -46.0769  -50.0793 H         1 UNK         0.3016 
@<TRIPOS>BOND
     1    1    2 1    
     2    1   67 1    
     3    1   68 1    
     4    1   69 1    
     5    2    3 2    
     6    2    4 am   BACKBONE|DICT|INTERRES
     7    4    5 1    
     8    4   70 1    
     9    5    6 1    
    10    5   65 1    
    11    5   71 1    
    12    6    7 1    
    13    6   72 1    
    14    6   73 1    
    15    7    8 1    
    16    8    9 1    
    17    8   74 1    
    18    8   75 1    
    19    9   10 ar   
    20    9   14 ar   
    21   10   11 ar   
    22   10   76 1    
    23   11   12 ar   
    24   11   48 1    
    25   12   13 ar   
    26   12   77 1    
    27   13   14 ar   
    28   13   15 1    
    29   14   78 1    
    30   15   16 1    
    31   15   79 1    
    32   15   80 1    
    33   16   17 1    
    34   17   18 1    
    35   17   81 1    
    36   17   82 1    
    37   18   19 1    
    38   18   22 1    
    39   18   83 1    
    40   19   20 am   BACKBONE|DICT|INTERRES
    41   19   21 2    
    42   20   84 1    
    43   20   85 1    
    44   22   23 am   BACKBONE|DICT|INTERRES
    45   22   86 1    
    46   23   24 2    
    47   23   25 1    
    48   25   26 1    
    49   25   27 1    
    50   25   87 1    
    51   26   88 1    
    52   26   89 1    
    53   26   90 1    
    54   27   28 am   BACKBONE|DICT|INTERRES
    55   27   91 1    
    56   28   29 2    
    57   28   30 1    
    58   30   31 1    
    59   30   32 1    
    60   30   92 1    
    61   31   93 1    
    62   31   94 1    
    63   31   95 1    
    64   32   33 am   BACKBONE|DICT|INTERRES
    65   32   96 1    
    66   33   34 2    
    67   33   35 1    
    68   35   36 1    
    69   35   37 1    
    70   35   97 1    
    71   36   98 1    
    72   36   99 1    
    73   36  100 1    
    74   37   38 am   BACKBONE|DICT|INTERRES
    75   37  101 1    
    76   38   39 2    
    77   38   40 1    
    78   40   41 1    
    79   40   42 1    
    80   40  102 1    
    81   41  103 1    
    82   41  104 1    
    83   41  105 1    
    84   42   43 am   BACKBONE|DICT|INTERRES
    85   42  106 1    
    86   43   44 2    
    87   43   45 1    
    88   45   46 1    
    89   45   49 1    
    90   45  107 1    
    91   46   47 1    
    92   46  108 1    
    93   46  109 1    
    94   47   48 1    
    95   48  110 1    
    96   48  111 1    
    97   49   50 am   BACKBONE|DICT|INTERRES
    98   49  112 1    
    99   50   51 2    
   100   50   52 1    
   101   52   53 1    
   102   52   54 1    
   103   52  113 1    
   104   53  114 1    
   105   53  115 1    
   106   53  116 1    
   107   54   55 am   BACKBONE|DICT|INTERRES
   108   54  117 1    
   109   55   56 2    
   110   55   57 1    
   111   57   58 1    
   112   57   59 1    
   113   57  118 1    
   114   58  119 1    
   115   58  120 1    
   116   58  121 1    
   117   59   60 am   BACKBONE|DICT|INTERRES
   118   59  122 1    
   119   60   61 2    
   120   60   62 1    
   121   62   63 1    
   122   62   64 1    
   123   62  123 1    
   124   63  124 1    
   125   63  125 1    
   126   63  126 1    
   127   64   65 am   BACKBONE|DICT|INTERRES
   128   64  127 1    
   129   65   66 2    
@<TRIPOS>SUBSTRUCTURE
     1 UNK         1 GROUP             0       ****    0 ROOT    
