@<TRIPOS>MOLECULE
3R134
127   129    1
SMALL
USER_CHARGES


@<TRIPOS>ATOM
      1 CA         36.6404  -47.2858  -55.4189 C.3       0 UNK        -0.1968 
      2 C          35.5549  -46.9674  -54.4029 C.2       0 UNK         0.4852 
      3 O          34.8343  -47.8715  -53.9780 O.2       0 UNK        -0.5359 
      4 N          35.4266  -45.6956  -54.0041 N.am      1 UNK        -0.4300 
      5 CA         34.4271  -45.2165  -53.0438 C.3       1 UNK         0.0863 
      6 C6         34.4714  -43.6803  -52.8668 C.3       11 UNK        -0.0953 
      7 S7         34.1449  -42.7874  -54.4238 S.3       11 UNK        -0.2369 
      8 C8         32.4187  -42.2565  -54.1960 C.3       11 UNK         0.0226 
      9 C9         31.4324  -43.3843  -54.4650 C.ar      11 UNK        -0.0699 
     10 C10        30.9990  -44.2140  -53.4256 C.ar      11 UNK        -0.0804 
     11 C11        30.0743  -45.2342  -53.6706 C.ar      11 UNK        -0.0871 
     12 C12        29.5568  -45.3954  -54.9582 C.ar      11 UNK        -0.1008 
     13 C13        29.9846  -44.5780  -56.0064 C.ar      11 UNK        -0.0735 
     14 C14        30.9332  -43.5818  -55.7562 C.ar      11 UNK        -0.0945 
     15 C15        29.4240  -44.7883  -57.4064 C.3       11 UNK         0.0169 
     16 S16        28.6221  -43.3063  -58.0965 S.3       11 UNK        -0.2669 
     17 C17        27.4162  -42.8369  -56.8033 C.3       11 UNK        -0.0850 
     18 CA         26.3931  -43.9356  -56.3799 C.3       10 UNK         0.0855 
     19 C          25.4005  -43.4100  -55.2984 C.2       10 UNK         0.5543 
     20 N          24.1080  -43.7092  -55.3629 N.am      10 UNK        -0.7343 
     21 O          25.8150  -42.7355  -54.3591 O.2       10 UNK        -0.5027 
     22 N          25.7536  -44.6430  -57.5013 N.am      10 UNK        -0.4495 
     23 C          25.0523  -44.0923  -58.5014 C.2       10 UNK         0.4903 
     24 O          24.9229  -42.8814  -58.6818 O.2       10 UNK        -0.4860 
     25 CA         24.3286  -45.0715  -59.4432 C.3       9 UNK         0.0227 
     26 CB         25.2345  -45.4459  -60.6270 C.3       9 UNK        -0.1964 
     27 N          23.8637  -46.2897  -58.7672 N.am      9 UNK        -0.4231 
     28 C          22.9742  -46.3098  -57.7612 C.2       9 UNK         0.5014 
     29 O          22.4345  -45.2974  -57.3126 O.2       9 UNK        -0.5270 
     30 CA         22.6279  -47.6681  -57.1255 C.3       8 UNK         0.0284 
     31 CB         21.2492  -48.1482  -57.6089 C.3       8 UNK        -0.1977 
     32 N          23.6113  -48.7288  -57.3592 N.am      8 UNK        -0.4342 
     33 C          24.8705  -48.7463  -56.9017 C.2       8 UNK         0.5039 
     34 O          25.3763  -47.8221  -56.2596 O.2       8 UNK        -0.5547 
     35 CA         25.6983  -50.0160  -57.1970 C.3       7 UNK         0.0281 
     36 CB         25.0980  -50.9192  -58.3001 C.3       7 UNK        -0.1963 
     37 N          27.1013  -49.7222  -57.5027 N.am      7 UNK        -0.4444 
     38 C          27.5796  -48.9189  -58.4611 C.2       7 UNK         0.5104 
     39 O          26.8679  -48.2731  -59.2329 O.2       7 UNK        -0.5100 
     40 CA         29.1175  -48.8412  -58.5771 C.3       6 UNK         0.0396 
     41 CB         29.5759  -47.8422  -59.6565 C.3       6 UNK        -0.1801 
     42 N          29.7845  -48.5233  -57.3065 N.am      6 UNK        -0.4747 
     43 C          29.9879  -49.3844  -56.2987 C.2       6 UNK         0.5012 
     44 O          29.5645  -50.5434  -56.2990 O.2       6 UNK        -0.5003 
     45 CA         30.7657  -48.8662  -55.0710 C.3       5 UNK         0.0782 
     46 C46        29.8001  -48.6552  -53.8779 C.3       11 UNK        -0.0868 
     47 S47        30.5741  -47.7100  -52.5226 S.3       11 UNK        -0.2515 
     48 C48        29.6248  -46.1532  -52.5440 C.3       11 UNK         0.0199 
     49 N          31.8507  -49.7861  -54.7118 N.am      5 UNK        -0.4607 
     50 C          32.8704  -50.1462  -55.5022 C.2       4 UNK         0.5031 
     51 O          33.0676  -49.6833  -56.6270 O.2       4 UNK        -0.5119 
     52 CA         33.8491  -51.1633  -54.8997 C.3       4 UNK         0.0263 
     53 CB         34.9416  -51.6182  -55.8879 C.3       4 UNK        -0.1967 
     54 N          34.4653  -50.5562  -53.7261 N.am      4 UNK        -0.4237 
     55 C          34.8916  -51.2015  -52.6354 C.2       3 UNK         0.4908 
     56 O          34.7992  -52.4198  -52.4803 O.2       3 UNK        -0.5102 
     57 CA         35.5177  -50.3471  -51.5240 C.3       3 UNK         0.0241 
     58 CB         36.9695  -49.9775  -51.8736 C.3       3 UNK        -0.1971 
     59 N          34.7435  -49.1242  -51.2909 N.am      3 UNK        -0.4139 
     60 C          34.2363  -48.7488  -50.1079 C.2       2 UNK         0.5016 
     61 O          34.3905  -49.3939  -49.0689 O.2       2 UNK        -0.5319 
     62 CA         33.3906  -47.4570  -50.0622 C.3       2 UNK         0.0286 
     63 CB         33.6278  -46.6383  -48.7746 C.3       2 UNK        -0.1963 
     64 N          33.5024  -46.6125  -51.2601 N.am      2 UNK        -0.4790 
     65 C          34.5745  -45.9270  -51.6831 C.2       1 UNK         0.5024 
     66 O          35.6459  -45.8626  -51.0773 O.2       1 UNK        -0.4888 
     67 H67        37.3692  -47.9707  -54.9867 H         1 UNK         0.0892 
     68 H68        36.2014  -47.7635  -56.2945 H         1 UNK         0.0892 
     69 H69        37.1666  -46.3900  -55.7478 H         1 UNK         0.0892 
     70 H70        36.0471  -44.9895  -54.3727 H         1 UNK         0.3107 
     71 H71        33.4539  -45.4814  -53.4611 H         1 UNK         0.0773 
     72 H72        33.7541  -43.3571  -52.1105 H         1 UNK         0.0680 
     73 H73        35.4512  -43.3681  -52.5003 H         1 UNK         0.0680 
     74 H74        32.2201  -41.4286  -54.8785 H         1 UNK         0.0650 
     75 H75        32.2790  -41.8543  -53.1916 H         1 UNK         0.0650 
     76 H76        31.3838  -44.0665  -52.4260 H         1 UNK         0.1397 
     77 H77        28.8182  -46.1601  -55.1485 H         1 UNK         0.1363 
     78 H78        31.2670  -42.9465  -56.5654 H         1 UNK         0.1355 
     79 H79        30.2386  -45.0827  -58.0690 H         1 UNK         0.0707 
     80 H80        28.7024  -45.6064  -57.4191 H         1 UNK         0.0707 
     81 H81        26.8866  -41.9517  -57.1590 H         1 UNK         0.1034 
     82 H82        27.9826  -42.5027  -55.9319 H         1 UNK         0.1034 
     83 H83        26.9520  -44.7131  -55.8618 H         1 UNK         0.0482 
     84 H84        23.7284  -44.2529  -56.1290 H         1 UNK         0.3460 
     85 H85        23.4914  -43.3646  -54.6446 H         1 UNK         0.3460 
     86 H86        25.7558  -45.6520  -57.4273 H         1 UNK         0.2989 
     87 H87        23.4479  -44.5606  -59.8377 H         1 UNK         0.0559 
     88 H88        26.1465  -45.9440  -60.2965 H         1 UNK         0.0848 
     89 H89        25.5363  -44.5558  -61.1808 H         1 UNK         0.0848 
     90 H90        24.7248  -46.1060  -61.3288 H         1 UNK         0.0848 
     91 H91        24.2860  -47.1622  -59.0537 H         1 UNK         0.3144 
     92 H92        22.5725  -47.5073  -56.0467 H         1 UNK         0.0727 
     93 H93        20.9395  -49.0565  -57.0914 H         1 UNK         0.0790 
     94 H94        21.2449  -48.3518  -58.6805 H         1 UNK         0.0790 
     95 H95        20.4838  -47.3944  -57.4182 H         1 UNK         0.0790 
     96 H96        23.2907  -49.5295  -57.8849 H         1 UNK         0.3215 
     97 H97        25.7060  -50.5884  -56.2683 H         1 UNK         0.0863 
     98 H98        24.9884  -50.3895  -59.2475 H         1 UNK         0.0808 
     99 H99        24.1197  -51.3081  -58.0151 H         1 UNK         0.0808 
    100 H100       25.7339  -51.7857  -58.4829 H         1 UNK         0.0808 
    101 H101       27.7934  -50.1827  -56.9174 H         1 UNK         0.3118 
    102 H102       29.4549  -49.8303  -58.8943 H         1 UNK         0.0546 
    103 H103       29.2076  -46.8350  -59.4646 H         1 UNK         0.0828 
    104 H104       29.2015  -48.1361  -60.6380 H         1 UNK         0.0828 
    105 H105       30.6627  -47.7995  -59.7283 H         1 UNK         0.0828 
    106 H106       30.1537  -47.5876  -57.2249 H         1 UNK         0.3005 
    107 H107       31.2245  -47.9093  -55.3308 H         1 UNK         0.1257 
    108 H108       29.4764  -49.6181  -53.4776 H         1 UNK         0.0775 
    109 H109       28.8821  -48.1556  -54.1884 H         1 UNK         0.0775 
    110 H110       28.5576  -46.3650  -52.6266 H         1 UNK         0.0840 
    111 H111       29.7553  -45.6541  -51.5825 H         1 UNK         0.0840 
    112 H112       31.7831  -50.2047  -53.7962 H         1 UNK         0.2987 
    113 H113       33.2645  -52.0359  -54.6004 H         1 UNK         0.0785 
    114 H114       35.5890  -52.3738  -55.4430 H         1 UNK         0.0798 
    115 H115       34.5002  -52.0561  -56.7840 H         1 UNK         0.0798 
    116 H116       35.5691  -50.7838  -56.2040 H         1 UNK         0.0798 
    117 H117       34.5851  -49.5424  -53.7892 H         1 UNK         0.3079 
    118 H118       35.5355  -50.9636  -50.6228 H         1 UNK         0.0794 
    119 H119       37.4428  -49.4296  -51.0587 H         1 UNK         0.0786 
    120 H120       37.0266  -49.3577  -52.7688 H         1 UNK         0.0786 
    121 H121       37.5678  -50.8715  -52.0549 H         1 UNK         0.0786 
    122 H122       34.5786  -48.5321  -52.0987 H         1 UNK         0.3032 
    123 H123       32.3543  -47.7975  -50.0359 H         1 UNK         0.1094 
    124 H124       34.6708  -46.3398  -48.6673 H         1 UNK         0.0794 
    125 H125       33.0156  -45.7367  -48.7584 H         1 UNK         0.0794 
    126 H126       33.3675  -47.2189  -47.8887 H         1 UNK         0.0794 
    127 H127       32.6863  -46.6314  -51.8598 H         1 UNK         0.3016 
@<TRIPOS>BOND
     1    1    2 1    
     2    1   67 1    
     3    1   68 1    
     4    1   69 1    
     5    2    3 2    
     6    2    4 am   BACKBONE|DICT|INTERRES
     7    4    5 1    
     8    4   70 1    
     9    5    6 1    
    10    5   65 1    
    11    5   71 1    
    12    6    7 1    
    13    6   72 1    
    14    6   73 1    
    15    7    8 1    
    16    8    9 1    
    17    8   74 1    
    18    8   75 1    
    19    9   10 ar   
    20    9   14 ar   
    21   10   11 ar   
    22   10   76 1    
    23   11   12 ar   
    24   11   48 1    
    25   12   13 ar   
    26   12   77 1    
    27   13   14 ar   
    28   13   15 1    
    29   14   78 1    
    30   15   16 1    
    31   15   79 1    
    32   15   80 1    
    33   16   17 1    
    34   17   18 1    
    35   17   81 1    
    36   17   82 1    
    37   18   19 1    
    38   18   22 1    
    39   18   83 1    
    40   19   20 am   BACKBONE|DICT|INTERRES
    41   19   21 2    
    42   20   84 1    
    43   20   85 1    
    44   22   23 am   BACKBONE|DICT|INTERRES
    45   22   86 1    
    46   23   24 2    
    47   23   25 1    
    48   25   26 1    
    49   25   27 1    
    50   25   87 1    
    51   26   88 1    
    52   26   89 1    
    53   26   90 1    
    54   27   28 am   BACKBONE|DICT|INTERRES
    55   27   91 1    
    56   28   29 2    
    57   28   30 1    
    58   30   31 1    
    59   30   32 1    
    60   30   92 1    
    61   31   93 1    
    62   31   94 1    
    63   31   95 1    
    64   32   33 am   BACKBONE|DICT|INTERRES
    65   32   96 1    
    66   33   34 2    
    67   33   35 1    
    68   35   36 1    
    69   35   37 1    
    70   35   97 1    
    71   36   98 1    
    72   36   99 1    
    73   36  100 1    
    74   37   38 am   BACKBONE|DICT|INTERRES
    75   37  101 1    
    76   38   39 2    
    77   38   40 1    
    78   40   41 1    
    79   40   42 1    
    80   40  102 1    
    81   41  103 1    
    82   41  104 1    
    83   41  105 1    
    84   42   43 am   BACKBONE|DICT|INTERRES
    85   42  106 1    
    86   43   44 2    
    87   43   45 1    
    88   45   46 1    
    89   45   49 1    
    90   45  107 1    
    91   46   47 1    
    92   46  108 1    
    93   46  109 1    
    94   47   48 1    
    95   48  110 1    
    96   48  111 1    
    97   49   50 am   BACKBONE|DICT|INTERRES
    98   49  112 1    
    99   50   51 2    
   100   50   52 1    
   101   52   53 1    
   102   52   54 1    
   103   52  113 1    
   104   53  114 1    
   105   53  115 1    
   106   53  116 1    
   107   54   55 am   BACKBONE|DICT|INTERRES
   108   54  117 1    
   109   55   56 2    
   110   55   57 1    
   111   57   58 1    
   112   57   59 1    
   113   57  118 1    
   114   58  119 1    
   115   58  120 1    
   116   58  121 1    
   117   59   60 am   BACKBONE|DICT|INTERRES
   118   59  122 1    
   119   60   61 2    
   120   60   62 1    
   121   62   63 1    
   122   62   64 1    
   123   62  123 1    
   124   63  124 1    
   125   63  125 1    
   126   63  126 1    
   127   64   65 am   BACKBONE|DICT|INTERRES
   128   64  127 1    
   129   65   66 2    
@<TRIPOS>SUBSTRUCTURE
     1 UNK         1 GROUP             0       ****    0 ROOT    
