@<TRIPOS>MOLECULE
3R134
127   129    1
SMALL
USER_CHARGES


@<TRIPOS>ATOM
      1 CA         36.1186  -48.1668  -55.3399 C.3       0 UNK        -0.1968 
      2 C          34.9898  -47.4844  -54.5841 C.2       0 UNK         0.4852 
      3 O          33.8794  -48.0178  -54.5449 O.2       0 UNK        -0.5359 
      4 N          35.2632  -46.3165  -53.9841 N.am      1 UNK        -0.4300 
      5 CA         34.3218  -45.5106  -53.1971 C.3       1 UNK         0.0863 
      6 C6         35.0027  -44.2194  -52.6814 C.3       11 UNK        -0.0953 
      7 S7         33.8250  -42.9687  -52.0640 S.3       11 UNK        -0.2369 
      8 C8         33.8142  -41.7476  -53.4149 C.3       11 UNK         0.0226 
      9 C9         32.7999  -42.1091  -54.4890 C.ar      11 UNK        -0.0699 
     10 C10        33.1493  -42.9619  -55.5411 C.ar      11 UNK        -0.0804 
     11 C11        32.2087  -43.3003  -56.5188 C.ar      11 UNK        -0.0871 
     12 C12        30.9269  -42.7468  -56.4623 C.ar      11 UNK        -0.1008 
     13 C13        30.5644  -41.8994  -55.4131 C.ar      11 UNK        -0.0735 
     14 C14        31.5047  -41.5847  -54.4284 C.ar      11 UNK        -0.0945 
     15 C15        29.1622  -41.3134  -55.3518 C.3       11 UNK         0.0169 
     16 S16        28.0573  -42.2586  -54.2519 S.3       11 UNK        -0.2669 
     17 C17        27.8100  -43.8289  -55.1528 C.3       11 UNK        -0.0850 
     18 CA         26.5878  -43.7897  -56.1092 C.3       10 UNK         0.0855 
     19 C          26.9569  -43.2403  -57.5115 C.2       10 UNK         0.5543 
     20 N          26.4209  -42.0902  -57.8955 N.am      10 UNK        -0.7343 
     21 O          27.7541  -43.8330  -58.2346 O.2       10 UNK        -0.5027 
     22 N          25.9662  -45.1126  -56.2293 N.am      10 UNK        -0.4495 
     23 C          24.6828  -45.3104  -56.5583 C.2       10 UNK         0.4903 
     24 O          23.8744  -44.3970  -56.7355 O.2       10 UNK        -0.4860 
     25 CA         24.2247  -46.7748  -56.6868 C.3       9 UNK         0.0227 
     26 CB         22.8079  -46.9228  -57.2823 C.3       9 UNK        -0.1964 
     27 N          25.1899  -47.6104  -57.4061 N.am      9 UNK        -0.4231 
     28 C          25.5883  -47.4996  -58.6844 C.2       9 UNK         0.5014 
     29 O          25.1493  -46.6585  -59.4697 O.2       9 UNK        -0.5270 
     30 CA         26.6620  -48.4900  -59.1839 C.3       8 UNK         0.0284 
     31 CB         27.9312  -47.7409  -59.6280 C.3       8 UNK        -0.1977 
     32 N          27.0264  -49.4938  -58.1798 N.am      8 UNK        -0.4342 
     33 C          26.3206  -50.5984  -57.8993 C.2       8 UNK         0.5039 
     34 O          25.3370  -50.9652  -58.5422 O.2       8 UNK        -0.5547 
     35 CA         26.7578  -51.4007  -56.6609 C.3       7 UNK         0.0281 
     36 CB         27.6810  -52.5621  -57.0625 C.3       7 UNK        -0.1963 
     37 N          27.4195  -50.5585  -55.6560 N.am      7 UNK        -0.4444 
     38 C          26.7730  -49.6782  -54.8740 C.2       7 UNK         0.5104 
     39 O          25.5532  -49.5206  -54.8984 O.2       7 UNK        -0.5100 
     40 CA         27.6206  -48.7768  -53.9563 C.3       6 UNK         0.0396 
     41 CB         27.8135  -49.4363  -52.5840 C.3       6 UNK        -0.1801 
     42 N          28.9231  -48.4370  -54.5352 N.am      6 UNK        -0.4747 
     43 C          29.0827  -47.6883  -55.6372 C.2       6 UNK         0.5012 
     44 O          28.1486  -47.1014  -56.1849 O.2       6 UNK        -0.5003 
     45 CA         30.4916  -47.6202  -56.2705 C.3       5 UNK         0.0782 
     46 C46        31.0909  -46.2049  -56.1171 C.3       11 UNK        -0.0868 
     47 S47        32.6787  -45.9953  -56.9952 S.3       11 UNK        -0.2515 
     48 C48        32.5595  -44.2876  -57.6230 C.3       11 UNK         0.0199 
     49 N          31.4039  -48.6756  -55.8029 N.am      5 UNK        -0.4607 
     50 C          31.2330  -49.9840  -56.0448 C.2       4 UNK         0.5031 
     51 O          30.2382  -50.4380  -56.6089 O.2       4 UNK        -0.5119 
     52 CA         32.3159  -50.9505  -55.5525 C.3       4 UNK         0.0263 
     53 CB         33.4807  -51.0053  -56.5542 C.3       4 UNK        -0.1967 
     54 N          32.8203  -50.5525  -54.2386 N.am      4 UNK        -0.4237 
     55 C          32.8350  -51.3273  -53.1474 C.2       3 UNK         0.4908 
     56 O          32.4263  -52.4889  -53.1185 O.2       3 UNK        -0.5102 
     57 CA         33.4109  -50.7041  -51.8645 C.3       3 UNK         0.0241 
     58 CB         34.9458  -50.7931  -51.8640 C.3       3 UNK        -0.1971 
     59 N          33.0089  -49.3108  -51.6632 N.am      3 UNK        -0.4139 
     60 C          31.7667  -48.8888  -51.3985 C.2       2 UNK         0.5016 
     61 O          30.8069  -49.6495  -51.2849 O.2       2 UNK        -0.5319 
     62 CA         31.5330  -47.3712  -51.2402 C.3       2 UNK         0.0286 
     63 CB         31.6141  -46.9520  -49.7596 C.3       2 UNK        -0.1963 
     64 N          32.3788  -46.5151  -52.0887 N.am      2 UNK        -0.4790 
     65 C          33.7086  -46.3432  -52.0520 C.2       1 UNK         0.5024 
     66 O          34.4519  -46.8669  -51.2194 O.2       1 UNK        -0.4888 
     67 H67        35.8868  -48.1968  -56.4042 H         1 UNK         0.0892 
     68 H68        37.0685  -47.6484  -55.2120 H         1 UNK         0.0892 
     69 H69        36.2400  -49.1909  -54.9885 H         1 UNK         0.0892 
     70 H70        36.2036  -45.9533  -54.0362 H         1 UNK         0.3107 
     71 H71        33.5217  -45.2255  -53.8825 H         1 UNK         0.0773 
     72 H72        35.7112  -44.4481  -51.8828 H         1 UNK         0.0680 
     73 H73        35.5989  -43.7711  -53.4771 H         1 UNK         0.0680 
     74 H74        34.8103  -41.6423  -53.8467 H         1 UNK         0.0650 
     75 H75        33.5695  -40.7717  -52.9928 H         1 UNK         0.0650 
     76 H76        34.1442  -43.3832  -55.5872 H         1 UNK         0.1397 
     77 H77        30.2004  -42.9954  -57.2243 H         1 UNK         0.1363 
     78 H78        31.2263  -40.9305  -53.6133 H         1 UNK         0.1355 
     79 H79        28.7295  -41.2488  -56.3502 H         1 UNK         0.0707 
     80 H80        29.2171  -40.2868  -54.9863 H         1 UNK         0.0707 
     81 H81        28.7200  -44.1363  -55.6644 H         1 UNK         0.1034 
     82 H82        27.6511  -44.5887  -54.3857 H         1 UNK         0.1034 
     83 H83        25.8433  -43.1276  -55.6615 H         1 UNK         0.0482 
     84 H84        26.6582  -41.7163  -58.8006 H         1 UNK         0.3460 
     85 H85        25.7627  -41.6027  -57.3079 H         1 UNK         0.3460 
     86 H86        26.5986  -45.9067  -56.1849 H         1 UNK         0.2989 
     87 H87        24.1900  -47.1667  -55.6693 H         1 UNK         0.0559 
     88 H88        22.0696  -46.4098  -56.6648 H         1 UNK         0.0848 
     89 H89        22.5090  -47.9694  -57.3396 H         1 UNK         0.0848 
     90 H90        22.7413  -46.4989  -58.2847 H         1 UNK         0.0848 
     91 H91        25.6151  -48.3385  -56.8477 H         1 UNK         0.3144 
     92 H92        26.2498  -49.0031  -60.0553 H         1 UNK         0.0727 
     93 H93        28.3453  -47.1297  -58.8261 H         1 UNK         0.0790 
     94 H94        27.7129  -47.0692  -60.4593 H         1 UNK         0.0790 
     95 H95        28.7059  -48.4296  -59.9653 H         1 UNK         0.0790 
     96 H96        27.8247  -49.2823  -57.5986 H         1 UNK         0.3215 
     97 H97        25.8585  -51.8263  -56.2097 H         1 UNK         0.0863 
     98 H98        27.9990  -53.1380  -56.1933 H         1 UNK         0.0808 
     99 H99        28.5744  -52.2129  -57.5806 H         1 UNK         0.0808 
    100 H100       27.1667  -53.2492  -57.7358 H         1 UNK         0.0808 
    101 H101       28.4336  -50.5931  -55.6351 H         1 UNK         0.3118 
    102 H102       27.0666  -47.8473  -53.8074 H         1 UNK         0.0546 
    103 H103       28.4162  -50.3430  -52.6496 H         1 UNK         0.0828 
    104 H104       26.8543  -49.7131  -52.1442 H         1 UNK         0.0828 
    105 H105       28.3012  -48.7575  -51.8848 H         1 UNK         0.0828 
    106 H106       29.7347  -48.8916  -54.1419 H         1 UNK         0.3005 
    107 H107       30.3413  -47.7917  -57.3388 H         1 UNK         0.1257 
    108 H108       31.2393  -45.9524  -55.0662 H         1 UNK         0.0775 
    109 H109       30.3874  -45.4752  -56.5178 H         1 UNK         0.0775 
    110 H110       33.5115  -44.0067  -58.0756 H         1 UNK         0.0840 
    111 H111       31.8186  -44.2545  -58.4235 H         1 UNK         0.0840 
    112 H112       32.2694  -48.3583  -55.3707 H         1 UNK         0.2987 
    113 H113       31.8619  -51.9424  -55.5017 H         1 UNK         0.0785 
    114 H114       33.1323  -51.3112  -57.5416 H         1 UNK         0.0798 
    115 H115       34.2379  -51.7237  -56.2399 H         1 UNK         0.0798 
    116 H116       33.9658  -50.0347  -56.6644 H         1 UNK         0.0798 
    117 H117       33.1960  -49.6067  -54.1732 H         1 UNK         0.3079 
    118 H118       33.0349  -51.2837  -51.0187 H         1 UNK         0.0794 
    119 H119       35.3628  -50.4374  -50.9216 H         1 UNK         0.0786 
    120 H120       35.3853  -50.2022  -52.6686 H         1 UNK         0.0786 
    121 H121       35.2777  -51.8239  -51.9961 H         1 UNK         0.0786 
    122 H122       33.7378  -48.6052  -51.6942 H         1 UNK         0.3032 
    123 H123       30.5090  -47.1898  -51.5719 H         1 UNK         0.1094 
    124 H124       31.3846  -45.8939  -49.6339 H         1 UNK         0.0794 
    125 H125       30.8970  -47.5127  -49.1585 H         1 UNK         0.0794 
    126 H126       32.6016  -47.1343  -49.3348 H         1 UNK         0.0794 
    127 H127       31.8824  -46.0499  -52.8352 H         1 UNK         0.3016 
@<TRIPOS>BOND
     1    1    2 1    
     2    1   67 1    
     3    1   68 1    
     4    1   69 1    
     5    2    3 2    
     6    2    4 am   BACKBONE|DICT|INTERRES
     7    4    5 1    
     8    4   70 1    
     9    5    6 1    
    10    5   65 1    
    11    5   71 1    
    12    6    7 1    
    13    6   72 1    
    14    6   73 1    
    15    7    8 1    
    16    8    9 1    
    17    8   74 1    
    18    8   75 1    
    19    9   10 ar   
    20    9   14 ar   
    21   10   11 ar   
    22   10   76 1    
    23   11   12 ar   
    24   11   48 1    
    25   12   13 ar   
    26   12   77 1    
    27   13   14 ar   
    28   13   15 1    
    29   14   78 1    
    30   15   16 1    
    31   15   79 1    
    32   15   80 1    
    33   16   17 1    
    34   17   18 1    
    35   17   81 1    
    36   17   82 1    
    37   18   19 1    
    38   18   22 1    
    39   18   83 1    
    40   19   20 am   BACKBONE|DICT|INTERRES
    41   19   21 2    
    42   20   84 1    
    43   20   85 1    
    44   22   23 am   BACKBONE|DICT|INTERRES
    45   22   86 1    
    46   23   24 2    
    47   23   25 1    
    48   25   26 1    
    49   25   27 1    
    50   25   87 1    
    51   26   88 1    
    52   26   89 1    
    53   26   90 1    
    54   27   28 am   BACKBONE|DICT|INTERRES
    55   27   91 1    
    56   28   29 2    
    57   28   30 1    
    58   30   31 1    
    59   30   32 1    
    60   30   92 1    
    61   31   93 1    
    62   31   94 1    
    63   31   95 1    
    64   32   33 am   BACKBONE|DICT|INTERRES
    65   32   96 1    
    66   33   34 2    
    67   33   35 1    
    68   35   36 1    
    69   35   37 1    
    70   35   97 1    
    71   36   98 1    
    72   36   99 1    
    73   36  100 1    
    74   37   38 am   BACKBONE|DICT|INTERRES
    75   37  101 1    
    76   38   39 2    
    77   38   40 1    
    78   40   41 1    
    79   40   42 1    
    80   40  102 1    
    81   41  103 1    
    82   41  104 1    
    83   41  105 1    
    84   42   43 am   BACKBONE|DICT|INTERRES
    85   42  106 1    
    86   43   44 2    
    87   43   45 1    
    88   45   46 1    
    89   45   49 1    
    90   45  107 1    
    91   46   47 1    
    92   46  108 1    
    93   46  109 1    
    94   47   48 1    
    95   48  110 1    
    96   48  111 1    
    97   49   50 am   BACKBONE|DICT|INTERRES
    98   49  112 1    
    99   50   51 2    
   100   50   52 1    
   101   52   53 1    
   102   52   54 1    
   103   52  113 1    
   104   53  114 1    
   105   53  115 1    
   106   53  116 1    
   107   54   55 am   BACKBONE|DICT|INTERRES
   108   54  117 1    
   109   55   56 2    
   110   55   57 1    
   111   57   58 1    
   112   57   59 1    
   113   57  118 1    
   114   58  119 1    
   115   58  120 1    
   116   58  121 1    
   117   59   60 am   BACKBONE|DICT|INTERRES
   118   59  122 1    
   119   60   61 2    
   120   60   62 1    
   121   62   63 1    
   122   62   64 1    
   123   62  123 1    
   124   63  124 1    
   125   63  125 1    
   126   63  126 1    
   127   64   65 am   BACKBONE|DICT|INTERRES
   128   64  127 1    
   129   65   66 2    
@<TRIPOS>SUBSTRUCTURE
     1 UNK         1 GROUP             0       ****    0 ROOT    
