@<TRIPOS>MOLECULE
3R134
127   129    1
SMALL
USER_CHARGES


@<TRIPOS>ATOM
      1 CA         32.7531  -41.9800  -51.0194 C.3       0 UNK        -0.1968 
      2 C          33.5634  -43.2653  -51.0955 C.2       0 UNK         0.4852 
      3 O          32.9722  -44.3445  -51.1592 O.2       0 UNK        -0.5359 
      4 N          34.9017  -43.1434  -51.0979 N.am      1 UNK        -0.4300 
      5 CA         35.9138  -44.2103  -51.1643 C.3       1 UNK         0.0863 
      6 C6         36.2828  -44.6345  -52.6221 C.3       11 UNK        -0.0953 
      7 S7         34.9494  -45.3776  -53.6310 S.3       11 UNK        -0.2369 
      8 C8         34.4450  -43.9627  -54.6498 C.3       11 UNK         0.0226 
      9 C9         33.1183  -44.2238  -55.3450 C.ar      11 UNK        -0.0699 
     10 C10        33.0715  -44.4708  -56.7223 C.ar      11 UNK        -0.0804 
     11 C11        31.8431  -44.6424  -57.3698 C.ar      11 UNK        -0.0871 
     12 C12        30.6645  -44.5611  -56.6253 C.ar      11 UNK        -0.1008 
     13 C13        30.6990  -44.3587  -55.2473 C.ar      11 UNK        -0.0735 
     14 C14        31.9285  -44.1838  -54.6099 C.ar      11 UNK        -0.0945 
     15 C15        29.3947  -44.3316  -54.4710 C.3       11 UNK         0.0169 
     16 S16        28.7811  -46.0226  -54.2135 S.3       11 UNK        -0.2669 
     17 C17        27.0120  -45.7212  -53.8852 C.3       11 UNK        -0.0850 
     18 CA         26.0997  -46.4381  -54.9206 C.3       10 UNK         0.0855 
     19 C          24.5894  -46.4295  -54.5277 C.2       10 UNK         0.5543 
     20 N          23.6614  -46.5328  -55.4727 N.am      10 UNK        -0.7343 
     21 O          24.2481  -46.3539  -53.3497 O.2       10 UNK        -0.5027 
     22 N          26.3701  -46.0495  -56.3153 N.am      10 UNK        -0.4495 
     23 C          26.0757  -44.8697  -56.8769 C.2       10 UNK         0.4903 
     24 O          25.7130  -43.8791  -56.2418 O.2       10 UNK        -0.4860 
     25 CA         26.1403  -44.7788  -58.4160 C.3       9 UNK         0.0227 
     26 CB         27.3479  -43.9499  -58.8832 C.3       9 UNK        -0.1964 
     27 N          26.1350  -46.0666  -59.1223 N.am      9 UNK        -0.4231 
     28 C          25.1618  -46.9885  -59.0774 C.2       9 UNK         0.5014 
     29 O          24.1453  -46.8781  -58.3894 O.2       9 UNK        -0.5270 
     30 CA         25.3537  -48.2530  -59.9259 C.3       8 UNK         0.0284 
     31 CB         26.4338  -48.1246  -61.0210 C.3       8 UNK        -0.1977 
     32 N          25.7037  -49.3606  -59.0403 N.am      8 UNK        -0.4342 
     33 C          25.0463  -50.5242  -58.9591 C.2       8 UNK         0.5039 
     34 O          24.0347  -50.7814  -59.6145 O.2       8 UNK        -0.5547 
     35 CA         25.6122  -51.6127  -58.0251 C.3       7 UNK         0.0281 
     36 CB         26.1093  -52.8169  -58.8441 C.3       7 UNK        -0.1963 
     37 N          26.7054  -51.1526  -57.1653 N.am      7 UNK        -0.4444 
     38 C          26.5463  -50.4959  -56.0095 C.2       7 UNK         0.5104 
     39 O          25.4521  -50.1932  -55.5345 O.2       7 UNK        -0.5100 
     40 CA         27.8332  -50.1056  -55.2584 C.3       6 UNK         0.0396 
     41 CB         28.2762  -51.2687  -54.3562 C.3       6 UNK        -0.1801 
     42 N          28.9616  -49.6896  -56.1040 N.am      6 UNK        -0.4747 
     43 C          28.9413  -48.7913  -57.1028 C.2       6 UNK         0.5012 
     44 O          27.9110  -48.2482  -57.5101 O.2       6 UNK        -0.5003 
     45 CA         30.3007  -48.4426  -57.7447 C.3       5 UNK         0.0782 
     46 C46        30.2067  -47.2488  -58.7340 C.3       11 UNK        -0.0868 
     47 S47        31.8303  -46.6432  -59.3210 S.3       11 UNK        -0.2515 
     48 C48        31.7805  -44.8746  -58.8746 C.3       11 UNK         0.0199 
     49 N          31.3131  -48.2506  -56.6986 N.am      5 UNK        -0.4607 
     50 C          32.2589  -49.1490  -56.3975 C.2       4 UNK         0.5031 
     51 O          32.3402  -50.2570  -56.9286 O.2       4 UNK        -0.5119 
     52 CA         33.2865  -48.7686  -55.3192 C.3       4 UNK         0.0263 
     53 CB         34.4944  -48.0681  -55.9606 C.3       4 UNK        -0.1967 
     54 N          32.7596  -47.9477  -54.2241 N.am      4 UNK        -0.4237 
     55 C          31.7960  -48.3364  -53.3760 C.2       3 UNK         0.4908 
     56 O          31.1739  -49.3938  -53.4887 O.2       3 UNK        -0.5102 
     57 CA         31.5352  -47.4071  -52.1746 C.3       3 UNK         0.0241 
     58 CB         30.3433  -47.8639  -51.3060 C.3       3 UNK        -0.1971 
     59 N          32.7364  -47.2180  -51.3498 N.am      3 UNK        -0.4139 
     60 C          33.4749  -48.1666  -50.7441 C.2       2 UNK         0.5016 
     61 O          33.1964  -49.3667  -50.7536 O.2       2 UNK        -0.5319 
     62 CA         34.7555  -47.7005  -50.0238 C.3       2 UNK         0.0286 
     63 CB         35.8207  -48.8091  -49.9239 C.3       2 UNK        -0.1963 
     64 N          35.3254  -46.5533  -50.7248 N.am      2 UNK        -0.4790 
     65 C          35.6111  -45.3671  -50.1830 C.2       1 UNK         0.5024 
     66 O          35.6088  -45.1471  -48.9699 O.2       1 UNK        -0.4888 
     67 H67        32.1193  -41.8855  -51.9006 H         1 UNK         0.0892 
     68 H68        32.1120  -41.9941  -50.1385 H         1 UNK         0.0892 
     69 H69        33.3891  -41.0969  -50.9626 H         1 UNK         0.0892 
     70 H70        35.2893  -42.2143  -51.0128 H         1 UNK         0.3107 
     71 H71        36.8164  -43.7520  -50.7566 H         1 UNK         0.0773 
     72 H72        37.1132  -45.3424  -52.5995 H         1 UNK         0.0680 
     73 H73        36.6735  -43.7669  -53.1557 H         1 UNK         0.0680 
     74 H74        35.2301  -43.7477  -55.3763 H         1 UNK         0.0650 
     75 H75        34.3507  -43.0744  -54.0243 H         1 UNK         0.0650 
     76 H76        33.9888  -44.5115  -57.2939 H         1 UNK         0.1397 
     77 H77        29.7042  -44.6612  -57.1042 H         1 UNK         0.1363 
     78 H78        31.9600  -44.0100  -53.5440 H         1 UNK         0.1355 
     79 H79        29.5226  -43.8393  -53.5057 H         1 UNK         0.0707 
     80 H80        28.6582  -43.7492  -55.0274 H         1 UNK         0.0707 
     81 H81        26.7989  -44.6517  -53.8617 H         1 UNK         0.1034 
     82 H82        26.8084  -46.0883  -52.8778 H         1 UNK         0.1034 
     83 H83        26.3549  -47.4934  -54.8822 H         1 UNK         0.0482 
     84 H84        22.6892  -46.5365  -55.2097 H         1 UNK         0.3460 
     85 H85        23.9197  -46.6214  -56.4510 H         1 UNK         0.3460 
     86 H86        26.7170  -46.7955  -56.9089 H         1 UNK         0.2989 
     87 H87        25.2378  -44.2461  -58.7224 H         1 UNK         0.0559 
     88 H88        27.4533  -43.0341  -58.2995 H         1 UNK         0.0848 
     89 H89        27.2386  -43.6528  -59.9263 H         1 UNK         0.0848 
     90 H90        28.2789  -44.5058  -58.7966 H         1 UNK         0.0848 
     91 H91        26.9366  -46.2636  -59.7027 H         1 UNK         0.3144 
     92 H92        24.3969  -48.4370  -60.4189 H         1 UNK         0.0727 
     93 H93        26.4458  -49.0115  -61.6549 H         1 UNK         0.0790 
     94 H94        27.4349  -48.0119  -60.6041 H         1 UNK         0.0790 
     95 H95        26.2392  -47.2721  -61.6735 H         1 UNK         0.0790 
     96 H96        26.4879  -49.1917  -58.4158 H         1 UNK         0.3215 
     97 H97        24.7882  -51.9510  -57.3927 H         1 UNK         0.0863 
     98 H98        26.4546  -53.6231  -58.1964 H         1 UNK         0.0808 
     99 H99        26.9297  -52.5428  -59.5085 H         1 UNK         0.0808 
    100 H100       25.3107  -53.2250  -59.4652 H         1 UNK         0.0808 
    101 H101       27.6463  -51.3509  -57.4740 H         1 UNK         0.3118 
    102 H102       27.6006  -49.2639  -54.6075 H         1 UNK         0.0546 
    103 H103       27.4574  -51.6037  -53.7177 H         1 UNK         0.0828 
    104 H104       29.0914  -50.9742  -53.6963 H         1 UNK         0.0828 
    105 H105       28.6091  -52.1290  -54.9379 H         1 UNK         0.0828 
    106 H106       29.8671  -50.0442  -55.8261 H         1 UNK         0.3005 
    107 H107       30.5648  -49.3124  -58.3504 H         1 UNK         0.1257 
    108 H108       29.6358  -47.5488  -59.6138 H         1 UNK         0.0775 
    109 H109       29.6428  -46.4299  -58.2977 H         1 UNK         0.0775 
    110 H110       32.6197  -44.3715  -59.3572 H         1 UNK         0.0840 
    111 H111       30.8809  -44.4200  -59.2923 H         1 UNK         0.0840 
    112 H112       31.2954  -47.3669  -56.2089 H         1 UNK         0.2987 
    113 H113       33.6394  -49.7016  -54.8748 H         1 UNK         0.0785 
    114 H114       35.3010  -47.9276  -55.2412 H         1 UNK         0.0798 
    115 H115       34.2263  -47.0917  -56.3645 H         1 UNK         0.0798 
    116 H116       34.8991  -48.6595  -56.7831 H         1 UNK         0.0798 
    117 H117       33.2215  -47.0625  -54.0610 H         1 UNK         0.3079 
    118 H118       31.2885  -46.4269  -52.5848 H         1 UNK         0.0794 
    119 H119       29.4357  -47.9495  -51.9047 H         1 UNK         0.0786 
    120 H120       30.1396  -47.1495  -50.5087 H         1 UNK         0.0786 
    121 H121       30.5217  -48.8375  -50.8489 H         1 UNK         0.0786 
    122 H122       33.0319  -46.2468  -51.2551 H         1 UNK         0.3032 
    123 H123       34.4532  -47.4175  -49.0129 H         1 UNK         0.1094 
    124 H124       36.1161  -49.1723  -50.9090 H         1 UNK         0.0794 
    125 H125       36.7164  -48.4519  -49.4155 H         1 UNK         0.0794 
    126 H126       35.4481  -49.6631  -49.3568 H         1 UNK         0.0794 
    127 H127       35.3256  -46.6066  -51.7367 H         1 UNK         0.3016 
@<TRIPOS>BOND
     1    1    2 1    
     2    1   67 1    
     3    1   68 1    
     4    1   69 1    
     5    2    3 2    
     6    2    4 am   BACKBONE|DICT|INTERRES
     7    4    5 1    
     8    4   70 1    
     9    5    6 1    
    10    5   65 1    
    11    5   71 1    
    12    6    7 1    
    13    6   72 1    
    14    6   73 1    
    15    7    8 1    
    16    8    9 1    
    17    8   74 1    
    18    8   75 1    
    19    9   10 ar   
    20    9   14 ar   
    21   10   11 ar   
    22   10   76 1    
    23   11   12 ar   
    24   11   48 1    
    25   12   13 ar   
    26   12   77 1    
    27   13   14 ar   
    28   13   15 1    
    29   14   78 1    
    30   15   16 1    
    31   15   79 1    
    32   15   80 1    
    33   16   17 1    
    34   17   18 1    
    35   17   81 1    
    36   17   82 1    
    37   18   19 1    
    38   18   22 1    
    39   18   83 1    
    40   19   20 am   BACKBONE|DICT|INTERRES
    41   19   21 2    
    42   20   84 1    
    43   20   85 1    
    44   22   23 am   BACKBONE|DICT|INTERRES
    45   22   86 1    
    46   23   24 2    
    47   23   25 1    
    48   25   26 1    
    49   25   27 1    
    50   25   87 1    
    51   26   88 1    
    52   26   89 1    
    53   26   90 1    
    54   27   28 am   BACKBONE|DICT|INTERRES
    55   27   91 1    
    56   28   29 2    
    57   28   30 1    
    58   30   31 1    
    59   30   32 1    
    60   30   92 1    
    61   31   93 1    
    62   31   94 1    
    63   31   95 1    
    64   32   33 am   BACKBONE|DICT|INTERRES
    65   32   96 1    
    66   33   34 2    
    67   33   35 1    
    68   35   36 1    
    69   35   37 1    
    70   35   97 1    
    71   36   98 1    
    72   36   99 1    
    73   36  100 1    
    74   37   38 am   BACKBONE|DICT|INTERRES
    75   37  101 1    
    76   38   39 2    
    77   38   40 1    
    78   40   41 1    
    79   40   42 1    
    80   40  102 1    
    81   41  103 1    
    82   41  104 1    
    83   41  105 1    
    84   42   43 am   BACKBONE|DICT|INTERRES
    85   42  106 1    
    86   43   44 2    
    87   43   45 1    
    88   45   46 1    
    89   45   49 1    
    90   45  107 1    
    91   46   47 1    
    92   46  108 1    
    93   46  109 1    
    94   47   48 1    
    95   48  110 1    
    96   48  111 1    
    97   49   50 am   BACKBONE|DICT|INTERRES
    98   49  112 1    
    99   50   51 2    
   100   50   52 1    
   101   52   53 1    
   102   52   54 1    
   103   52  113 1    
   104   53  114 1    
   105   53  115 1    
   106   53  116 1    
   107   54   55 am   BACKBONE|DICT|INTERRES
   108   54  117 1    
   109   55   56 2    
   110   55   57 1    
   111   57   58 1    
   112   57   59 1    
   113   57  118 1    
   114   58  119 1    
   115   58  120 1    
   116   58  121 1    
   117   59   60 am   BACKBONE|DICT|INTERRES
   118   59  122 1    
   119   60   61 2    
   120   60   62 1    
   121   62   63 1    
   122   62   64 1    
   123   62  123 1    
   124   63  124 1    
   125   63  125 1    
   126   63  126 1    
   127   64   65 am   BACKBONE|DICT|INTERRES
   128   64  127 1    
   129   65   66 2    
@<TRIPOS>SUBSTRUCTURE
     1 UNK         1 GROUP             0       ****    0 ROOT    
