@<TRIPOS>MOLECULE
3R134
127   129    1
SMALL
USER_CHARGES


@<TRIPOS>ATOM
      1 CA         34.1661  -47.2945  -50.5750 C.3       0 UNK        -0.1968 
      2 C          33.9703  -47.2345  -52.0817 C.2       0 UNK         0.4852 
      3 O          33.0200  -47.8252  -52.5957 O.2       0 UNK        -0.5359 
      4 N          34.8501  -46.5227  -52.7983 N.am      1 UNK        -0.4300 
      5 CA         34.8156  -46.3684  -54.2568 C.3       1 UNK         0.0863 
      6 C6         33.5106  -45.6667  -54.7387 C.3       11 UNK        -0.0953 
      7 S7         33.7890  -44.5511  -56.1521 S.3       11 UNK        -0.2369 
      8 C8         33.5548  -42.9171  -55.3740 C.3       11 UNK         0.0226 
      9 C9         32.1012  -42.6892  -54.9828 C.ar      11 UNK        -0.0699 
     10 C10        31.6781  -42.8871  -53.6648 C.ar      11 UNK        -0.0804 
     11 C11        30.3291  -42.7616  -53.3222 C.ar      11 UNK        -0.0871 
     12 C12        29.4038  -42.3927  -54.3050 C.ar      11 UNK        -0.1008 
     13 C13        29.8217  -42.1476  -55.6184 C.ar      11 UNK        -0.0735 
     14 C14        31.1720  -42.2982  -55.9487 C.ar      11 UNK        -0.0945 
     15 C15        28.8207  -41.7112  -56.6795 C.3       11 UNK         0.0169 
     16 S16        28.7862  -42.8685  -58.0820 S.3       11 UNK        -0.2669 
     17 C17        27.2990  -42.3028  -58.9767 C.3       11 UNK        -0.0850 
     18 CA         26.0000  -42.9656  -58.4491 C.3       10 UNK         0.0855 
     19 C          24.7673  -42.5092  -59.2744 C.2       10 UNK         0.5543 
     20 N          24.1480  -41.3988  -58.8982 N.am      10 UNK        -0.7343 
     21 O          24.3964  -43.1235  -60.2731 O.2       10 UNK        -0.5027 
     22 N          26.1360  -44.4249  -58.3835 N.am      10 UNK        -0.4495 
     23 C          25.3325  -45.2574  -57.7195 C.2       10 UNK         0.4903 
     24 O          24.3331  -44.8946  -57.0979 O.2       10 UNK        -0.4860 
     25 CA         25.7231  -46.7451  -57.6992 C.3       9 UNK         0.0227 
     26 CB         25.0429  -47.5169  -58.8459 C.3       9 UNK        -0.1964 
     27 N          27.1700  -47.0089  -57.6515 N.am      9 UNK        -0.4231 
     28 C          28.1092  -46.8391  -58.5962 C.2       9 UNK         0.5014 
     29 O          27.9002  -46.3101  -59.6884 O.2       9 UNK        -0.5270 
     30 CA         29.5191  -47.3676  -58.2722 C.3       8 UNK         0.0284 
     31 CB         30.3902  -46.2775  -57.6232 C.3       8 UNK        -0.1977 
     32 N          29.4543  -48.5439  -57.3988 N.am      8 UNK        -0.4342 
     33 C          29.2296  -49.7917  -57.8378 C.2       8 UNK         0.5039 
     34 O          29.2055  -50.1008  -59.0298 O.2       8 UNK        -0.5547 
     35 CA         28.9727  -50.8847  -56.7833 C.3       7 UNK         0.0281 
     36 CB         30.2492  -51.6851  -56.4999 C.3       7 UNK        -0.1963 
     37 N          28.4225  -50.3664  -55.5261 N.am      7 UNK        -0.4444 
     38 C          27.1564  -49.9413  -55.3996 C.2       7 UNK         0.5104 
     39 O          26.3229  -50.0047  -56.3030 O.2       7 UNK        -0.5100 
     40 CA         26.7449  -49.3084  -54.0597 C.3       6 UNK         0.0396 
     41 CB         26.2087  -50.3858  -53.1046 C.3       6 UNK        -0.1801 
     42 N          27.8024  -48.5560  -53.3816 N.am      6 UNK        -0.4747 
     43 C          28.5292  -47.5446  -53.8740 C.2       6 UNK         0.5012 
     44 O          28.4149  -47.1451  -55.0317 O.2       6 UNK        -0.5003 
     45 CA         29.5765  -46.8830  -52.9459 C.3       5 UNK         0.0782 
     46 C46        28.9629  -45.6675  -52.2025 C.3       11 UNK        -0.0868 
     47 S47        30.2196  -44.6954  -51.3045 S.3       11 UNK        -0.2515 
     48 C48        29.8838  -42.9967  -51.8834 C.3       11 UNK         0.0199 
     49 N          30.2720  -47.8453  -52.0707 N.am      5 UNK        -0.4607 
     50 C          29.7676  -48.5966  -51.0811 C.2       4 UNK         0.5031 
     51 O          28.6084  -48.4881  -50.6775 O.2       4 UNK        -0.5119 
     52 CA         30.6710  -49.6992  -50.4842 C.3       4 UNK         0.0263 
     53 CB         29.8442  -50.8675  -49.9060 C.3       4 UNK        -0.1967 
     54 N          31.6997  -50.2361  -51.3892 N.am      4 UNK        -0.4237 
     55 C          31.5498  -50.7146  -52.6344 C.2       3 UNK         0.4908 
     56 O          30.4920  -50.7045  -53.2714 O.2       3 UNK        -0.5102 
     57 CA         32.8127  -51.2949  -53.2840 C.3       3 UNK         0.0241 
     58 CB         32.5753  -52.7752  -53.6576 C.3       3 UNK        -0.1971 
     59 N          33.1615  -50.4509  -54.4301 N.am      3 UNK        -0.4139 
     60 C          34.0895  -50.6712  -55.3733 C.2       2 UNK         0.5016 
     61 O          34.7878  -51.6826  -55.4465 O.2       2 UNK        -0.5319 
     62 CA         34.3018  -49.5463  -56.4064 C.3       2 UNK         0.0286 
     63 CB         33.2762  -49.6428  -57.5480 C.3       2 UNK        -0.1963 
     64 N          34.2414  -48.2075  -55.8141 N.am      2 UNK        -0.4790 
     65 C          35.1270  -47.7249  -54.9308 C.2       1 UNK         0.5024 
     66 O          36.1607  -48.3194  -54.6170 O.2       1 UNK        -0.4888 
     67 H67        34.9945  -46.6673  -50.2467 H         1 UNK         0.0892 
     68 H68        33.2625  -46.9551  -50.0691 H         1 UNK         0.0892 
     69 H69        34.3691  -48.3184  -50.2636 H         1 UNK         0.0892 
     70 H70        35.6356  -46.0884  -52.3341 H         1 UNK         0.3107 
     71 H71        35.6613  -45.7194  -54.4900 H         1 UNK         0.0773 
     72 H72        32.7022  -46.3607  -54.9704 H         1 UNK         0.0680 
     73 H73        33.1119  -45.0772  -53.9175 H         1 UNK         0.0680 
     74 H74        33.8704  -42.1434  -56.0754 H         1 UNK         0.0650 
     75 H75        34.2093  -42.8295  -54.5054 H         1 UNK         0.0650 
     76 H76        32.3938  -43.1668  -52.9039 H         1 UNK         0.1397 
     77 H77        28.3597  -42.2834  -54.0450 H         1 UNK         0.1363 
     78 H78        31.4962  -42.1323  -56.9672 H         1 UNK         0.1355 
     79 H79        27.8198  -41.6366  -56.2519 H         1 UNK         0.0707 
     80 H80        29.0844  -40.7152  -57.0378 H         1 UNK         0.0707 
     81 H81        27.2327  -41.2149  -58.9137 H         1 UNK         0.1034 
     82 H82        27.4394  -42.5356  -60.0342 H         1 UNK         0.1034 
     83 H83        25.8496  -42.6238  -57.4230 H         1 UNK         0.0482 
     84 H84        24.4480  -40.8820  -58.0862 H         1 UNK         0.3460 
     85 H85        23.3549  -41.0762  -59.4307 H         1 UNK         0.3460 
     86 H86        26.9089  -44.8306  -58.9013 H         1 UNK         0.2989 
     87 H87        25.3344  -47.1507  -56.7637 H         1 UNK         0.0559 
     88 H88        23.9590  -47.4039  -58.8002 H         1 UNK         0.0848 
     89 H89        25.2607  -48.5835  -58.7867 H         1 UNK         0.0848 
     90 H90        25.3632  -47.1609  -59.8254 H         1 UNK         0.0848 
     91 H91        27.5048  -47.3256  -56.7465 H         1 UNK         0.3144 
     92 H92        29.9927  -47.6515  -59.2146 H         1 UNK         0.0727 
     93 H93        29.9460  -45.8778  -56.7114 H         1 UNK         0.0790 
     94 H94        30.5254  -45.4374  -58.3053 H         1 UNK         0.0790 
     95 H95        31.3832  -46.6534  -57.3778 H         1 UNK         0.0790 
     96 H96        29.3952  -48.3610  -56.4044 H         1 UNK         0.3215 
     97 H97        28.2428  -51.5741  -57.2141 H         1 UNK         0.0863 
     98 H98        30.0333  -52.5486  -55.8713 H         1 UNK         0.0808 
     99 H99        30.9968  -51.0775  -55.9942 H         1 UNK         0.0808 
    100 H100       30.6963  -52.0583  -57.4223 H         1 UNK         0.0808 
    101 H101       29.0428  -50.3281  -54.7214 H         1 UNK         0.3118 
    102 H102       25.9372  -48.6042  -54.2687 H         1 UNK         0.0546 
    103 H103       26.9881  -51.0946  -52.8210 H         1 UNK         0.0828 
    104 H104       25.4014  -50.9547  -53.5683 H         1 UNK         0.0828 
    105 H105       25.8094  -49.9443  -52.1914 H         1 UNK         0.0828 
    106 H106       27.9657  -48.7853  -52.4046 H         1 UNK         0.3005 
    107 H107       30.3499  -46.4944  -53.6113 H         1 UNK         0.1257 
    108 H108       28.1998  -45.9873  -51.4914 H         1 UNK         0.0775 
    109 H109       28.4549  -45.0116  -52.9124 H         1 UNK         0.0775 
    110 H110       28.8221  -42.7778  -51.7583 H         1 UNK         0.0840 
    111 H111       30.4149  -42.2977  -51.2359 H         1 UNK         0.0840 
    112 H112       31.2546  -47.9870  -52.3036 H         1 UNK         0.2987 
    113 H113       31.2062  -49.2279  -49.6587 H         1 UNK         0.0785 
    114 H114       29.1604  -50.5240  -49.1287 H         1 UNK         0.0798 
    115 H115       30.4864  -51.6239  -49.4549 H         1 UNK         0.0798 
    116 H116       29.2456  -51.3533  -50.6777 H         1 UNK         0.0798 
    117 H117       32.6330  -50.2470  -51.0034 H         1 UNK         0.3079 
    118 H118       33.6390  -51.2444  -52.5728 H         1 UNK         0.0794 
    119 H119       33.5058  -53.2842  -53.9061 H         1 UNK         0.0786 
    120 H120       31.9010  -52.8789  -54.5053 H         1 UNK         0.0786 
    121 H121       32.1347  -53.3237  -52.8238 H         1 UNK         0.0786 
    122 H122       32.6882  -49.5570  -54.4391 H         1 UNK         0.3032 
    123 H123       35.2986  -49.6824  -56.8326 H         1 UNK         0.1094 
    124 H124       32.2667  -49.4159  -57.2068 H         1 UNK         0.0794 
    125 H125       33.5168  -48.9499  -58.3545 H         1 UNK         0.0794 
    126 H126       33.2598  -50.6453  -57.9782 H         1 UNK         0.0794 
    127 H127       33.4417  -47.6373  -56.0466 H         1 UNK         0.3016 
@<TRIPOS>BOND
     1    1    2 1    
     2    1   67 1    
     3    1   68 1    
     4    1   69 1    
     5    2    3 2    
     6    2    4 am   BACKBONE|DICT|INTERRES
     7    4    5 1    
     8    4   70 1    
     9    5    6 1    
    10    5   65 1    
    11    5   71 1    
    12    6    7 1    
    13    6   72 1    
    14    6   73 1    
    15    7    8 1    
    16    8    9 1    
    17    8   74 1    
    18    8   75 1    
    19    9   10 ar   
    20    9   14 ar   
    21   10   11 ar   
    22   10   76 1    
    23   11   12 ar   
    24   11   48 1    
    25   12   13 ar   
    26   12   77 1    
    27   13   14 ar   
    28   13   15 1    
    29   14   78 1    
    30   15   16 1    
    31   15   79 1    
    32   15   80 1    
    33   16   17 1    
    34   17   18 1    
    35   17   81 1    
    36   17   82 1    
    37   18   19 1    
    38   18   22 1    
    39   18   83 1    
    40   19   20 am   BACKBONE|DICT|INTERRES
    41   19   21 2    
    42   20   84 1    
    43   20   85 1    
    44   22   23 am   BACKBONE|DICT|INTERRES
    45   22   86 1    
    46   23   24 2    
    47   23   25 1    
    48   25   26 1    
    49   25   27 1    
    50   25   87 1    
    51   26   88 1    
    52   26   89 1    
    53   26   90 1    
    54   27   28 am   BACKBONE|DICT|INTERRES
    55   27   91 1    
    56   28   29 2    
    57   28   30 1    
    58   30   31 1    
    59   30   32 1    
    60   30   92 1    
    61   31   93 1    
    62   31   94 1    
    63   31   95 1    
    64   32   33 am   BACKBONE|DICT|INTERRES
    65   32   96 1    
    66   33   34 2    
    67   33   35 1    
    68   35   36 1    
    69   35   37 1    
    70   35   97 1    
    71   36   98 1    
    72   36   99 1    
    73   36  100 1    
    74   37   38 am   BACKBONE|DICT|INTERRES
    75   37  101 1    
    76   38   39 2    
    77   38   40 1    
    78   40   41 1    
    79   40   42 1    
    80   40  102 1    
    81   41  103 1    
    82   41  104 1    
    83   41  105 1    
    84   42   43 am   BACKBONE|DICT|INTERRES
    85   42  106 1    
    86   43   44 2    
    87   43   45 1    
    88   45   46 1    
    89   45   49 1    
    90   45  107 1    
    91   46   47 1    
    92   46  108 1    
    93   46  109 1    
    94   47   48 1    
    95   48  110 1    
    96   48  111 1    
    97   49   50 am   BACKBONE|DICT|INTERRES
    98   49  112 1    
    99   50   51 2    
   100   50   52 1    
   101   52   53 1    
   102   52   54 1    
   103   52  113 1    
   104   53  114 1    
   105   53  115 1    
   106   53  116 1    
   107   54   55 am   BACKBONE|DICT|INTERRES
   108   54  117 1    
   109   55   56 2    
   110   55   57 1    
   111   57   58 1    
   112   57   59 1    
   113   57  118 1    
   114   58  119 1    
   115   58  120 1    
   116   58  121 1    
   117   59   60 am   BACKBONE|DICT|INTERRES
   118   59  122 1    
   119   60   61 2    
   120   60   62 1    
   121   62   63 1    
   122   62   64 1    
   123   62  123 1    
   124   63  124 1    
   125   63  125 1    
   126   63  126 1    
   127   64   65 am   BACKBONE|DICT|INTERRES
   128   64  127 1    
   129   65   66 2    
@<TRIPOS>SUBSTRUCTURE
     1 UNK         1 GROUP             0       ****    0 ROOT    
