@<TRIPOS>MOLECULE
3R134
127   129    1
SMALL
USER_CHARGES


@<TRIPOS>ATOM
      1 CA         30.1041  -44.9997  -52.5313 C.3       0 UNK        -0.1968 
      2 C          31.3508  -45.1900  -51.6852 C.2       0 UNK         0.4852 
      3 O          31.2791  -45.7967  -50.6163 O.2       0 UNK        -0.5359 
      4 N          32.4941  -44.6778  -52.1588 N.am      1 UNK        -0.4300 
      5 CA         33.7912  -44.7484  -51.4709 C.3       1 UNK         0.0863 
      6 C6         34.7541  -43.6289  -51.9369 C.3       11 UNK        -0.0953 
      7 S7         34.0482  -41.9636  -51.6870 S.3       11 UNK        -0.2369 
      8 C8         34.1357  -41.2497  -53.3588 C.3       11 UNK         0.0226 
      9 C9         33.1376  -41.8789  -54.3216 C.ar      11 UNK        -0.0699 
     10 C10        33.5635  -42.8334  -55.2522 C.ar      11 UNK        -0.0804 
     11 C11        32.6625  -43.3754  -56.1722 C.ar      11 UNK        -0.0871 
     12 C12        31.3386  -42.9328  -56.1760 C.ar      11 UNK        -0.1008 
     13 C13        30.8902  -42.0063  -55.2343 C.ar      11 UNK        -0.0735 
     14 C14        31.7953  -41.4794  -54.3069 C.ar      11 UNK        -0.0945 
     15 C15        29.4329  -41.5698  -55.2565 C.3       11 UNK         0.0169 
     16 S16        28.3089  -42.9418  -54.8199 S.3       11 UNK        -0.2669 
     17 C17        26.8747  -42.5876  -55.8962 C.3       11 UNK        -0.0850 
     18 CA         26.6917  -43.5674  -57.0876 C.3       10 UNK         0.0855 
     19 C          27.9203  -43.6178  -58.0411 C.2       10 UNK         0.5543 
     20 N          28.6254  -44.7389  -58.1493 N.am      10 UNK        -0.7343 
     21 O          28.2247  -42.6289  -58.7026 O.2       10 UNK        -0.5027 
     22 N          26.2205  -44.8949  -56.6553 N.am      10 UNK        -0.4495 
     23 C          25.3724  -45.6445  -57.3711 C.2       10 UNK         0.4903 
     24 O          24.8382  -45.2624  -58.4156 O.2       10 UNK        -0.4860 
     25 CA         25.0457  -47.0425  -56.8167 C.3       9 UNK         0.0227 
     26 CB         24.1497  -46.9186  -55.5727 C.3       9 UNK        -0.1964 
     27 N          24.3287  -47.8334  -57.8215 N.am      9 UNK        -0.4231 
     28 C          24.8136  -48.6108  -58.8036 C.2       9 UNK         0.5014 
     29 O          24.0777  -48.9980  -59.7107 O.2       9 UNK        -0.5270 
     30 CA         26.2836  -49.0925  -58.8186 C.3       8 UNK         0.0284 
     31 CB         27.2675  -48.0023  -59.2726 C.3       8 UNK        -0.1977 
     32 N          26.7467  -49.7309  -57.5834 N.am      8 UNK        -0.4342 
     33 C          26.2042  -50.8262  -57.0316 C.2       8 UNK         0.5039 
     34 O          25.2308  -51.4196  -57.4986 O.2       8 UNK        -0.5547 
     35 CA         26.8703  -51.3928  -55.7652 C.3       7 UNK         0.0281 
     36 CB         27.7386  -52.6097  -56.1251 C.3       7 UNK        -0.1963 
     37 N          27.6852  -50.4195  -55.0343 N.am      7 UNK        -0.4444 
     38 C          27.1910  -49.4181  -54.2946 C.2       7 UNK         0.5104 
     39 O          25.9884  -49.2221  -54.1273 O.2       7 UNK        -0.5100 
     40 CA         28.2043  -48.4702  -53.6322 C.3       6 UNK         0.0396 
     41 CB         28.6195  -49.0014  -52.2516 C.3       6 UNK        -0.1801 
     42 N          29.4031  -48.2506  -54.4416 N.am      6 UNK        -0.4747 
     43 C          29.4408  -47.5683  -55.5955 C.2       6 UNK         0.5012 
     44 O          28.4639  -47.0273  -56.1138 O.2       6 UNK        -0.5003 
     45 CA         30.8140  -47.4737  -56.2829 C.3       5 UNK         0.0782 
     46 C46        31.6413  -46.3550  -55.6126 C.3       11 UNK        -0.0868 
     47 S47        33.2838  -46.0821  -56.3597 S.3       11 UNK        -0.2515 
     48 C48        33.1027  -44.4508  -57.1564 C.3       11 UNK         0.0199 
     49 N          31.4968  -48.7686  -56.2691 N.am      5 UNK        -0.4607 
     50 C          31.1128  -49.8375  -56.9794 C.2       4 UNK         0.5031 
     51 O          30.1661  -49.8335  -57.7658 O.2       4 UNK        -0.5119 
     52 CA         31.9015  -51.1389  -56.7517 C.3       4 UNK         0.0263 
     53 CB         33.1279  -51.1929  -57.6762 C.3       4 UNK        -0.1967 
     54 N          32.3293  -51.3143  -55.3602 N.am      4 UNK        -0.4237 
     55 C          31.4915  -51.4894  -54.3277 C.2       3 UNK         0.4908 
     56 O          30.2692  -51.5550  -54.4422 O.2       3 UNK        -0.5102 
     57 CA         32.1168  -51.5452  -52.9238 C.3       3 UNK         0.0241 
     58 CB         32.6175  -52.9639  -52.6092 C.3       3 UNK        -0.1971 
     59 N          33.2033  -50.5789  -52.7242 N.am      3 UNK        -0.4139 
     60 C          33.0720  -49.2518  -52.8531 C.2       2 UNK         0.5016 
     61 O          32.0221  -48.6960  -53.1908 O.2       2 UNK        -0.5319 
     62 CA         34.3287  -48.4101  -52.6046 C.3       2 UNK         0.0286 
     63 CB         35.3014  -48.5028  -53.7934 C.3       2 UNK        -0.1963 
     64 N          33.9171  -47.0227  -52.4242 N.am      2 UNK        -0.4790 
     65 C          34.4636  -46.1365  -51.5849 C.2       1 UNK         0.5024 
     66 O          35.4633  -46.3782  -50.9065 O.2       1 UNK        -0.4888 
     67 H67        30.3380  -44.5329  -53.4866 H         1 UNK         0.0892 
     68 H68        29.3870  -44.3658  -52.0107 H         1 UNK         0.0892 
     69 H69        29.6311  -45.9597  -52.7292 H         1 UNK         0.0892 
     70 H70        32.4919  -44.1569  -53.0253 H         1 UNK         0.3107 
     71 H71        33.6079  -44.5927  -50.4053 H         1 UNK         0.0773 
     72 H72        35.6878  -43.6703  -51.3728 H         1 UNK         0.0680 
     73 H73        35.0299  -43.7699  -52.9824 H         1 UNK         0.0680 
     74 H74        35.1539  -41.3447  -53.7394 H         1 UNK         0.0650 
     75 H75        33.9397  -40.1787  -53.2891 H         1 UNK         0.0650 
     76 H76        34.5954  -43.1570  -55.2645 H         1 UNK         0.1397 
     77 H77        30.6397  -43.3366  -56.8943 H         1 UNK         0.1363 
     78 H78        31.4625  -40.7468  -53.5842 H         1 UNK         0.1355 
     79 H79        29.2612  -40.7369  -54.5730 H         1 UNK         0.0707 
     80 H80        29.2081  -41.2000  -56.2579 H         1 UNK         0.0707 
     81 H81        26.9387  -41.5638  -56.2684 H         1 UNK         0.1034 
     82 H82        25.9782  -42.6022  -55.2747 H         1 UNK         0.1034 
     83 H83        25.8972  -43.1235  -57.6908 H         1 UNK         0.0482 
     84 H84        29.3982  -44.7740  -58.7932 H         1 UNK         0.3460 
     85 H85        28.4033  -45.5347  -57.5654 H         1 UNK         0.3460 
     86 H86        26.6694  -45.2859  -55.8381 H         1 UNK         0.2989 
     87 H87        25.9703  -47.5336  -56.5255 H         1 UNK         0.0559 
     88 H88        23.8522  -47.8991  -55.2003 H         1 UNK         0.0848 
     89 H89        23.2417  -46.3500  -55.7782 H         1 UNK         0.0848 
     90 H90        24.6742  -46.4157  -54.7592 H         1 UNK         0.0848 
     91 H91        23.3538  -47.5870  -57.9045 H         1 UNK         0.3144 
     92 H92        26.3286  -49.8723  -59.5821 H         1 UNK         0.0727 
     93 H93        28.2389  -48.4301  -59.5219 H         1 UNK         0.0790 
     94 H94        27.4301  -47.2511  -58.5051 H         1 UNK         0.0790 
     95 H95        26.9018  -47.4872  -60.1619 H         1 UNK         0.0790 
     96 H96        27.5575  -49.3253  -57.1365 H         1 UNK         0.3215 
     97 H97        26.0700  -51.7312  -55.1033 H         1 UNK         0.0863 
     98 H98        28.1329  -53.0933  -55.2313 H         1 UNK         0.0808 
     99 H99        28.5836  -52.3277  -56.7547 H         1 UNK         0.0808 
    100 H100       27.1608  -53.3588  -56.6681 H         1 UNK         0.0808 
    101 H101       28.6898  -50.5762  -55.0291 H         1 UNK         0.3118 
    102 H102       27.7121  -47.5053  -53.4932 H         1 UNK         0.0546 
    103 H103       29.1218  -49.9665  -52.3267 H         1 UNK         0.0828 
    104 H104       27.7501  -49.1342  -51.6066 H         1 UNK         0.0828 
    105 H105       29.2971  -48.3125  -51.7466 H         1 UNK         0.0828 
    106 H106       30.2770  -48.6172  -54.0716 H         1 UNK         0.3005 
    107 H107       30.6395  -47.1962  -57.3250 H         1 UNK         0.1257 
    108 H108       31.0646  -45.4340  -55.6306 H         1 UNK         0.0775 
    109 H109       31.8021  -46.5701  -54.5576 H         1 UNK         0.0775 
    110 H110       34.0560  -44.1669  -57.6043 H         1 UNK         0.0840 
    111 H111       32.3926  -44.5349  -57.9806 H         1 UNK         0.0840 
    112 H112       32.2610  -48.8608  -55.6166 H         1 UNK         0.2987 
    113 H113       31.2425  -51.9717  -57.0071 H         1 UNK         0.0785 
    114 H114       33.8377  -50.3943  -57.4557 H         1 UNK         0.0798 
    115 H115       32.8324  -51.0864  -58.7210 H         1 UNK         0.0798 
    116 H116       33.6523  -52.1444  -57.5856 H         1 UNK         0.0798 
    117 H117       33.3206  -51.2730  -55.1746 H         1 UNK         0.3079 
    118 H118       31.3285  -51.2982  -52.2095 H         1 UNK         0.0794 
    119 H119       33.4382  -53.2600  -53.2637 H         1 UNK         0.0786 
    120 H120       31.8186  -53.6961  -52.7365 H         1 UNK         0.0786 
    121 H121       32.9640  -53.0431  -51.5786 H         1 UNK         0.0786 
    122 H122       34.0996  -50.9564  -52.4511 H         1 UNK         0.3032 
    123 H123       34.8129  -48.7760  -51.6962 H         1 UNK         0.1094 
    124 H124       36.1832  -47.8828  -53.6305 H         1 UNK         0.0794 
    125 H125       35.6505  -49.5252  -53.9419 H         1 UNK         0.0794 
    126 H126       34.8344  -48.1772  -54.7235 H         1 UNK         0.0794 
    127 H127       33.0438  -46.7896  -52.8780 H         1 UNK         0.3016 
@<TRIPOS>BOND
     1    1    2 1    
     2    1   67 1    
     3    1   68 1    
     4    1   69 1    
     5    2    3 2    
     6    2    4 am   BACKBONE|DICT|INTERRES
     7    4    5 1    
     8    4   70 1    
     9    5    6 1    
    10    5   65 1    
    11    5   71 1    
    12    6    7 1    
    13    6   72 1    
    14    6   73 1    
    15    7    8 1    
    16    8    9 1    
    17    8   74 1    
    18    8   75 1    
    19    9   10 ar   
    20    9   14 ar   
    21   10   11 ar   
    22   10   76 1    
    23   11   12 ar   
    24   11   48 1    
    25   12   13 ar   
    26   12   77 1    
    27   13   14 ar   
    28   13   15 1    
    29   14   78 1    
    30   15   16 1    
    31   15   79 1    
    32   15   80 1    
    33   16   17 1    
    34   17   18 1    
    35   17   81 1    
    36   17   82 1    
    37   18   19 1    
    38   18   22 1    
    39   18   83 1    
    40   19   20 am   BACKBONE|DICT|INTERRES
    41   19   21 2    
    42   20   84 1    
    43   20   85 1    
    44   22   23 am   BACKBONE|DICT|INTERRES
    45   22   86 1    
    46   23   24 2    
    47   23   25 1    
    48   25   26 1    
    49   25   27 1    
    50   25   87 1    
    51   26   88 1    
    52   26   89 1    
    53   26   90 1    
    54   27   28 am   BACKBONE|DICT|INTERRES
    55   27   91 1    
    56   28   29 2    
    57   28   30 1    
    58   30   31 1    
    59   30   32 1    
    60   30   92 1    
    61   31   93 1    
    62   31   94 1    
    63   31   95 1    
    64   32   33 am   BACKBONE|DICT|INTERRES
    65   32   96 1    
    66   33   34 2    
    67   33   35 1    
    68   35   36 1    
    69   35   37 1    
    70   35   97 1    
    71   36   98 1    
    72   36   99 1    
    73   36  100 1    
    74   37   38 am   BACKBONE|DICT|INTERRES
    75   37  101 1    
    76   38   39 2    
    77   38   40 1    
    78   40   41 1    
    79   40   42 1    
    80   40  102 1    
    81   41  103 1    
    82   41  104 1    
    83   41  105 1    
    84   42   43 am   BACKBONE|DICT|INTERRES
    85   42  106 1    
    86   43   44 2    
    87   43   45 1    
    88   45   46 1    
    89   45   49 1    
    90   45  107 1    
    91   46   47 1    
    92   46  108 1    
    93   46  109 1    
    94   47   48 1    
    95   48  110 1    
    96   48  111 1    
    97   49   50 am   BACKBONE|DICT|INTERRES
    98   49  112 1    
    99   50   51 2    
   100   50   52 1    
   101   52   53 1    
   102   52   54 1    
   103   52  113 1    
   104   53  114 1    
   105   53  115 1    
   106   53  116 1    
   107   54   55 am   BACKBONE|DICT|INTERRES
   108   54  117 1    
   109   55   56 2    
   110   55   57 1    
   111   57   58 1    
   112   57   59 1    
   113   57  118 1    
   114   58  119 1    
   115   58  120 1    
   116   58  121 1    
   117   59   60 am   BACKBONE|DICT|INTERRES
   118   59  122 1    
   119   60   61 2    
   120   60   62 1    
   121   62   63 1    
   122   62   64 1    
   123   62  123 1    
   124   63  124 1    
   125   63  125 1    
   126   63  126 1    
   127   64   65 am   BACKBONE|DICT|INTERRES
   128   64  127 1    
   129   65   66 2    
@<TRIPOS>SUBSTRUCTURE
     1 UNK         1 GROUP             0       ****    0 ROOT    
