@<TRIPOS>MOLECULE
3R134
127   129    1
SMALL
USER_CHARGES


@<TRIPOS>ATOM
      1 CA         36.2686  -47.9271  -50.8379 C.3       0 UNK        -0.1968 
      2 C          35.1586  -46.9666  -51.2365 C.2       0 UNK         0.4852 
      3 O          34.1859  -46.8214  -50.4945 O.2       0 UNK        -0.5359 
      4 N          35.2922  -46.3225  -52.4068 N.am      1 UNK        -0.4300 
      5 CA         34.3250  -45.3871  -52.9977 C.3       1 UNK         0.0863 
      6 C6         34.2603  -44.0473  -52.2092 C.3       11 UNK        -0.0953 
      7 S7         33.4545  -42.6239  -53.0276 S.3       11 UNK        -0.2369 
      8 C8         34.1383  -42.5925  -54.7207 C.3       11 UNK         0.0226 
      9 C9         33.1716  -43.1722  -55.7489 C.ar      11 UNK        -0.0699 
     10 C10        33.5536  -44.2262  -56.5876 C.ar      11 UNK        -0.0804 
     11 C11        32.6734  -44.7151  -57.5618 C.ar      11 UNK        -0.0871 
     12 C12        31.4008  -44.1487  -57.6818 C.ar      11 UNK        -0.1008 
     13 C13        30.9980  -43.1096  -56.8396 C.ar      11 UNK        -0.0735 
     14 C14        31.8972  -42.6140  -55.8912 C.ar      11 UNK        -0.0945 
     15 C15        29.6010  -42.5169  -56.9754 C.3       11 UNK         0.0169 
     16 S16        28.7265  -42.4402  -55.3767 S.3       11 UNK        -0.2669 
     17 C17        27.0027  -42.1755  -55.9123 C.3       11 UNK        -0.0850 
     18 CA         26.0065  -43.1584  -55.2412 C.3       10 UNK         0.0855 
     19 C          24.5557  -42.8635  -55.7258 C.2       10 UNK         0.5543 
     20 N          23.9314  -43.7211  -56.5258 N.am      10 UNK        -0.7343 
     21 O          23.9897  -41.8338  -55.3678 O.2       10 UNK        -0.5027 
     22 N          26.4232  -44.5622  -55.3909 N.am      10 UNK        -0.4495 
     23 C          25.9048  -45.5936  -54.7116 C.2       10 UNK         0.4903 
     24 O          25.1179  -45.4587  -53.7733 O.2       10 UNK        -0.4860 
     25 CA         26.3235  -47.0130  -55.1546 C.3       9 UNK         0.0227 
     26 CB         25.1879  -48.0371  -54.9523 C.3       9 UNK        -0.1964 
     27 N          26.8477  -47.1045  -56.5260 N.am      9 UNK        -0.4231 
     28 C          26.2481  -46.7206  -57.6659 C.2       9 UNK         0.5014 
     29 O          25.1386  -46.1879  -57.7197 O.2       9 UNK        -0.5270 
     30 CA         27.0368  -46.9487  -58.9617 C.3       8 UNK         0.0284 
     31 CB         28.2387  -45.9915  -59.0421 C.3       8 UNK        -0.1977 
     32 N          27.5049  -48.3316  -59.0325 N.am      8 UNK        -0.4342 
     33 C          26.8996  -49.3096  -59.7209 C.2       8 UNK         0.5039 
     34 O          25.9267  -49.1335  -60.4556 O.2       8 UNK        -0.5547 
     35 CA         27.4678  -50.7335  -59.5643 C.3       7 UNK         0.0281 
     36 CB         28.4938  -51.0278  -60.6705 C.3       7 UNK        -0.1963 
     37 N          28.0885  -50.9590  -58.2573 N.am      7 UNK        -0.4444 
     38 C          27.4261  -50.9914  -57.0925 C.2       7 UNK         0.5104 
     39 O          26.1985  -50.9783  -57.0058 O.2       7 UNK        -0.5100 
     40 CA         28.2704  -51.0150  -55.8046 C.3       6 UNK         0.0396 
     41 CB         28.2587  -52.4158  -55.1747 C.3       6 UNK        -0.1801 
     42 N          29.6619  -50.5810  -55.9745 N.am      6 UNK        -0.4747 
     43 C          30.0712  -49.3611  -56.3503 C.2       6 UNK         0.5012 
     44 O          29.2916  -48.4681  -56.6899 O.2       6 UNK        -0.5003 
     45 CA         31.5975  -49.1139  -56.3479 C.3       5 UNK         0.0782 
     46 C46        31.9846  -47.6527  -56.6881 C.3       11 UNK        -0.0868 
     47 S47        31.9586  -47.2685  -58.4653 S.3       11 UNK        -0.2515 
     48 C48        33.0995  -45.8422  -58.5000 C.3       11 UNK         0.0199 
     49 N          32.1906  -49.4833  -55.0634 N.am      5 UNK        -0.4607 
     50 C          32.4743  -50.7094  -54.6129 C.2       4 UNK         0.5031 
     51 O          32.2402  -51.7399  -55.2442 O.2       4 UNK        -0.5119 
     52 CA         33.0954  -50.7879  -53.2112 C.3       4 UNK         0.0263 
     53 CB         34.6029  -50.4911  -53.2708 C.3       4 UNK        -0.1967 
     54 N          32.4494  -49.8403  -52.3000 N.am      4 UNK        -0.4237 
     55 C          31.3760  -50.1227  -51.5490 C.2       3 UNK         0.4908 
     56 O          30.8597  -51.2387  -51.4823 O.2       3 UNK        -0.5102 
     57 CA         30.7719  -48.9688  -50.7286 C.3       3 UNK         0.0241 
     58 CB         31.4290  -48.8918  -49.3412 C.3       3 UNK        -0.1971 
     59 N          30.8859  -47.6700  -51.3971 N.am      3 UNK        -0.4139 
     60 C          30.1668  -47.3090  -52.4707 C.2       2 UNK         0.5016 
     61 O          29.2907  -48.0128  -52.9719 O.2       2 UNK        -0.5319 
     62 CA         30.4753  -45.9382  -53.1049 C.3       2 UNK         0.0286 
     63 CB         29.4891  -44.8840  -52.5797 C.3       2 UNK        -0.1963 
     64 N          31.8449  -45.4462  -52.9041 N.am      2 UNK        -0.4790 
     65 C          32.9708  -46.0930  -53.2323 C.2       1 UNK         0.5024 
     66 O          32.9801  -47.2356  -53.6896 O.2       1 UNK        -0.4888 
     67 H67        36.8038  -47.5408  -49.9711 H         1 UNK         0.0892 
     68 H68        35.8480  -48.8964  -50.5731 H         1 UNK         0.0892 
     69 H69        36.9865  -48.0786  -51.6433 H         1 UNK         0.0892 
     70 H70        36.1030  -46.5149  -52.9781 H         1 UNK         0.3107 
     71 H71        34.7152  -45.1852  -53.9932 H         1 UNK         0.0773 
     72 H72        35.2765  -43.7253  -51.9768 H         1 UNK         0.0680 
     73 H73        33.7806  -44.1971  -51.2404 H         1 UNK         0.0680 
     74 H74        34.3280  -41.5520  -54.9871 H         1 UNK         0.0650 
     75 H75        35.1102  -43.0858  -54.7508 H         1 UNK         0.0650 
     76 H76        34.5427  -44.6534  -56.4959 H         1 UNK         0.1397 
     77 H77        30.7237  -44.5246  -58.4358 H         1 UNK         0.1363 
     78 H78        31.5989  -41.7949  -55.2512 H         1 UNK         0.1355 
     79 H79        29.6742  -41.5121  -57.3966 H         1 UNK         0.0707 
     80 H80        29.0108  -43.1104  -57.6765 H         1 UNK         0.0707 
     81 H81        26.9354  -42.2543  -56.9989 H         1 UNK         0.1034 
     82 H82        26.7358  -41.1445  -55.6715 H         1 UNK         0.1034 
     83 H83        26.0156  -42.9442  -54.1707 H         1 UNK         0.0482 
     84 H84        22.9929  -43.5175  -56.8295 H         1 UNK         0.3460 
     85 H85        24.3897  -44.5707  -56.8404 H         1 UNK         0.3460 
     86 H86        27.0773  -44.7553  -56.1329 H         1 UNK         0.2989 
     87 H87        27.1479  -47.3000  -54.5013 H         1 UNK         0.0559 
     88 H88        24.8729  -48.0781  -53.9090 H         1 UNK         0.0848 
     89 H89        25.5057  -49.0415  -55.2283 H         1 UNK         0.0848 
     90 H90        24.3101  -47.7878  -55.5491 H         1 UNK         0.0848 
     91 H91        27.7754  -47.5228  -56.5954 H         1 UNK         0.3144 
     92 H92        26.3762  -46.7295  -59.8035 H         1 UNK         0.0727 
     93 H93        28.7865  -46.1243  -59.9752 H         1 UNK         0.0790 
     94 H94        28.9410  -46.1470  -58.2221 H         1 UNK         0.0790 
     95 H95        27.9116  -44.9519  -59.0038 H         1 UNK         0.0790 
     96 H96        28.2730  -48.5752  -58.4162 H         1 UNK         0.3215 
     97 H97        26.6364  -51.4340  -59.6699 H         1 UNK         0.0863 
     98 H98        28.8524  -52.0559  -60.6172 H         1 UNK         0.0808 
     99 H99        29.3581  -50.3652  -60.6086 H         1 UNK         0.0808 
    100 H100       28.0503  -50.8923  -61.6580 H         1 UNK         0.0808 
    101 H101       29.0963  -51.0060  -58.2269 H         1 UNK         0.3118 
    102 H102       27.8008  -50.3228  -55.1029 H         1 UNK         0.0546 
    103 H103       27.2378  -52.7582  -55.0005 H         1 UNK         0.0828 
    104 H104       28.7690  -52.4212  -54.2113 H         1 UNK         0.0828 
    105 H105       28.7448  -53.1508  -55.8169 H         1 UNK         0.0828 
    106 H106       30.3832  -51.2473  -55.7137 H         1 UNK         0.3005 
    107 H107       32.0278  -49.7680  -57.1094 H         1 UNK         0.1257 
    108 H108       31.3613  -46.9348  -56.1526 H         1 UNK         0.0775 
    109 H109       33.0046  -47.4617  -56.3504 H         1 UNK         0.0775 
    110 H110       34.1044  -46.1905  -58.2569 H         1 UNK         0.0840 
    111 H111       33.1481  -45.4550  -59.5186 H         1 UNK         0.0840 
    112 H112       32.4306  -48.6917  -54.4693 H         1 UNK         0.2987 
    113 H113       32.9646  -51.8069  -52.8404 H         1 UNK         0.0785 
    114 H114       35.0670  -50.6132  -52.2924 H         1 UNK         0.0798 
    115 H115       34.8057  -49.4759  -53.6145 H         1 UNK         0.0798 
    116 H116       35.1080  -51.1746  -53.9547 H         1 UNK         0.0798 
    117 H117       32.7715  -48.8811  -52.3382 H         1 UNK         0.3079 
    118 H118       29.7105  -49.1856  -50.5888 H         1 UNK         0.0794 
    119 H119       31.3215  -49.8365  -48.8065 H         1 UNK         0.0786 
    120 H120       30.9690  -48.1182  -48.7261 H         1 UNK         0.0786 
    121 H121       32.4959  -48.6763  -49.4095 H         1 UNK         0.0786 
    122 H122       31.5977  -47.0369  -51.0570 H         1 UNK         0.3032 
    123 H123       30.3236  -46.0403  -54.1814 H         1 UNK         0.1094 
    124 H124       29.6671  -43.9114  -53.0365 H         1 UNK         0.0794 
    125 H125       28.4594  -45.1641  -52.8064 H         1 UNK         0.0794 
    126 H126       29.5657  -44.7629  -51.4986 H         1 UNK         0.0794 
    127 H127       31.9384  -44.5017  -52.5542 H         1 UNK         0.3016 
@<TRIPOS>BOND
     1    1    2 1    
     2    1   67 1    
     3    1   68 1    
     4    1   69 1    
     5    2    3 2    
     6    2    4 am   BACKBONE|DICT|INTERRES
     7    4    5 1    
     8    4   70 1    
     9    5    6 1    
    10    5   65 1    
    11    5   71 1    
    12    6    7 1    
    13    6   72 1    
    14    6   73 1    
    15    7    8 1    
    16    8    9 1    
    17    8   74 1    
    18    8   75 1    
    19    9   10 ar   
    20    9   14 ar   
    21   10   11 ar   
    22   10   76 1    
    23   11   12 ar   
    24   11   48 1    
    25   12   13 ar   
    26   12   77 1    
    27   13   14 ar   
    28   13   15 1    
    29   14   78 1    
    30   15   16 1    
    31   15   79 1    
    32   15   80 1    
    33   16   17 1    
    34   17   18 1    
    35   17   81 1    
    36   17   82 1    
    37   18   19 1    
    38   18   22 1    
    39   18   83 1    
    40   19   20 am   BACKBONE|DICT|INTERRES
    41   19   21 2    
    42   20   84 1    
    43   20   85 1    
    44   22   23 am   BACKBONE|DICT|INTERRES
    45   22   86 1    
    46   23   24 2    
    47   23   25 1    
    48   25   26 1    
    49   25   27 1    
    50   25   87 1    
    51   26   88 1    
    52   26   89 1    
    53   26   90 1    
    54   27   28 am   BACKBONE|DICT|INTERRES
    55   27   91 1    
    56   28   29 2    
    57   28   30 1    
    58   30   31 1    
    59   30   32 1    
    60   30   92 1    
    61   31   93 1    
    62   31   94 1    
    63   31   95 1    
    64   32   33 am   BACKBONE|DICT|INTERRES
    65   32   96 1    
    66   33   34 2    
    67   33   35 1    
    68   35   36 1    
    69   35   37 1    
    70   35   97 1    
    71   36   98 1    
    72   36   99 1    
    73   36  100 1    
    74   37   38 am   BACKBONE|DICT|INTERRES
    75   37  101 1    
    76   38   39 2    
    77   38   40 1    
    78   40   41 1    
    79   40   42 1    
    80   40  102 1    
    81   41  103 1    
    82   41  104 1    
    83   41  105 1    
    84   42   43 am   BACKBONE|DICT|INTERRES
    85   42  106 1    
    86   43   44 2    
    87   43   45 1    
    88   45   46 1    
    89   45   49 1    
    90   45  107 1    
    91   46   47 1    
    92   46  108 1    
    93   46  109 1    
    94   47   48 1    
    95   48  110 1    
    96   48  111 1    
    97   49   50 am   BACKBONE|DICT|INTERRES
    98   49  112 1    
    99   50   51 2    
   100   50   52 1    
   101   52   53 1    
   102   52   54 1    
   103   52  113 1    
   104   53  114 1    
   105   53  115 1    
   106   53  116 1    
   107   54   55 am   BACKBONE|DICT|INTERRES
   108   54  117 1    
   109   55   56 2    
   110   55   57 1    
   111   57   58 1    
   112   57   59 1    
   113   57  118 1    
   114   58  119 1    
   115   58  120 1    
   116   58  121 1    
   117   59   60 am   BACKBONE|DICT|INTERRES
   118   59  122 1    
   119   60   61 2    
   120   60   62 1    
   121   62   63 1    
   122   62   64 1    
   123   62  123 1    
   124   63  124 1    
   125   63  125 1    
   126   63  126 1    
   127   64   65 am   BACKBONE|DICT|INTERRES
   128   64  127 1    
   129   65   66 2    
@<TRIPOS>SUBSTRUCTURE
     1 UNK         1 GROUP             0       ****    0 ROOT    
