@<TRIPOS>MOLECULE
3R134
127   129    1
SMALL
USER_CHARGES


@<TRIPOS>ATOM
      1 CA         39.4249  -44.9347  -53.1270 C.3       0 UNK        -0.1968 
      2 C          38.3292  -45.6001  -53.9468 C.2       0 UNK         0.4852 
      3 O          38.6283  -46.4249  -54.8115 O.2       0 UNK        -0.5359 
      4 N          37.0638  -45.2470  -53.6832 N.am      1 UNK        -0.4300 
      5 CA         35.8801  -45.7943  -54.3582 C.3       1 UNK         0.0863 
      6 C6         34.6351  -44.8941  -54.1428 C.3       11 UNK        -0.0953 
      7 S7         34.1430  -44.7222  -52.3904 S.3       11 UNK        -0.2369 
      8 C8         33.1617  -43.1961  -52.4374 C.3       11 UNK         0.0226 
      9 C9         31.7505  -43.4410  -52.9498 C.ar      11 UNK        -0.0699 
     10 C10        30.7576  -43.8846  -52.0704 C.ar      11 UNK        -0.0804 
     11 C11        29.4355  -44.0250  -52.5026 C.ar      11 UNK        -0.0871 
     12 C12        29.1163  -43.7194  -53.8291 C.ar      11 UNK        -0.1008 
     13 C13        30.1058  -43.3187  -54.7311 C.ar      11 UNK        -0.0735 
     14 C14        31.4238  -43.1783  -54.2841 C.ar      11 UNK        -0.0945 
     15 C15        29.7382  -43.0155  -56.1786 C.3       11 UNK         0.0169 
     16 S16        29.0396  -44.4791  -57.0045 S.3       11 UNK        -0.2669 
     17 C17        28.7904  -43.8784  -58.7091 C.3       11 UNK        -0.0850 
     18 CA         27.3144  -43.5272  -59.0412 C.3       10 UNK         0.0855 
     19 C          27.2080  -43.0240  -60.5114 C.2       10 UNK         0.5543 
     20 N          26.5890  -43.7617  -61.4250 N.am      10 UNK        -0.7343 
     21 O          27.7016  -41.9437  -60.8257 O.2       10 UNK        -0.5027 
     22 N          26.3949  -44.6189  -58.6729 N.am      10 UNK        -0.4495 
     23 C          25.0583  -44.5587  -58.6516 C.2       10 UNK         0.4903 
     24 O          24.4204  -43.5588  -58.9850 O.2       10 UNK        -0.4860 
     25 CA         24.3069  -45.8203  -58.1641 C.3       9 UNK         0.0227 
     26 CB         22.7893  -45.7369  -58.4182 C.3       9 UNK        -0.1964 
     27 N          24.8112  -47.0806  -58.7284 N.am      9 UNK        -0.4231 
     28 C          25.9438  -47.6932  -58.3633 C.2       9 UNK         0.5014 
     29 O          26.7444  -47.2114  -57.5645 O.2       9 UNK        -0.5270 
     30 CA         26.2619  -49.0342  -59.0272 C.3       8 UNK         0.0284 
     31 CB         26.9269  -48.8164  -60.3995 C.3       8 UNK        -0.1977 
     32 N          27.1547  -49.7963  -58.1537 N.am      8 UNK        -0.4342 
     33 C          27.2933  -51.1277  -58.1740 C.2       8 UNK         0.5039 
     34 O          26.6715  -51.8667  -58.9392 O.2       8 UNK        -0.5547 
     35 CA         28.2832  -51.7512  -57.1800 C.3       7 UNK         0.0281 
     36 CB         29.7327  -51.5542  -57.6566 C.3       7 UNK        -0.1963 
     37 N          28.1239  -51.1914  -55.8375 N.am      7 UNK        -0.4444 
     38 C          27.3820  -51.7431  -54.8663 C.2       7 UNK         0.5104 
     39 O          26.7519  -52.7927  -55.0028 O.2       7 UNK        -0.5100 
     40 CA         27.3391  -51.0286  -53.5008 C.3       6 UNK         0.0396 
     41 CB         28.2918  -51.7149  -52.5094 C.3       6 UNK        -0.1801 
     42 N          27.6708  -49.6048  -53.5792 N.am      6 UNK        -0.4747 
     43 C          26.8514  -48.6681  -54.0814 C.2       6 UNK         0.5012 
     44 O          25.6986  -48.9064  -54.4446 O.2       6 UNK        -0.5003 
     45 CA         27.3998  -47.2308  -54.2303 C.3       5 UNK         0.0782 
     46 C46        26.8908  -46.3159  -53.0817 C.3       11 UNK        -0.0868 
     47 S47        27.9830  -46.2376  -51.6138 S.3       11 UNK        -0.2515 
     48 C48        28.3507  -44.4536  -51.5214 C.3       11 UNK         0.0199 
     49 N          28.8549  -47.1571  -54.4155 N.am      5 UNK        -0.4607 
     50 C          29.5811  -47.8162  -55.3291 C.2       4 UNK         0.5031 
     51 O          29.0970  -48.5164  -56.2182 O.2       4 UNK        -0.5119 
     52 CA         31.1120  -47.7755  -55.1729 C.3       4 UNK         0.0263 
     53 CB         31.7319  -46.7455  -56.1282 C.3       4 UNK        -0.1967 
     54 N          31.5945  -47.5372  -53.8053 N.am      4 UNK        -0.4237 
     55 C          31.2844  -48.2747  -52.7275 C.2       3 UNK         0.4908 
     56 O          30.4879  -49.2150  -52.7443 O.2       3 UNK        -0.5102 
     57 CA         32.0064  -47.8916  -51.4235 C.3       3 UNK         0.0241 
     58 CB         31.4857  -48.6658  -50.1939 C.3       3 UNK        -0.1971 
     59 N          33.4628  -48.0239  -51.5579 N.am      3 UNK        -0.4139 
     60 C          34.1656  -49.1297  -51.8603 C.2       2 UNK         0.5016 
     61 O          33.6760  -50.2544  -51.9767 O.2       2 UNK        -0.5319 
     62 CA         35.6813  -48.9275  -52.0790 C.3       2 UNK         0.0286 
     63 CB         36.3516  -50.1120  -52.8085 C.3       2 UNK        -0.1963 
     64 N          35.9909  -47.6565  -52.7505 N.am      2 UNK        -0.4790 
     65 C          35.5780  -47.2577  -53.9667 C.2       1 UNK         0.5024 
     66 O          34.9450  -47.9673  -54.7482 O.2       1 UNK        -0.4888 
     67 H67        40.1089  -44.3962  -53.7824 H         1 UNK         0.0892 
     68 H68        39.0210  -44.2265  -52.4037 H         1 UNK         0.0892 
     69 H69        39.9954  -45.6868  -52.5827 H         1 UNK         0.0892 
     70 H70        36.8748  -44.5591  -52.9673 H         1 UNK         0.3107 
     71 H71        36.0925  -45.8014  -55.4297 H         1 UNK         0.0773 
     72 H72        33.7827  -45.2705  -54.7078 H         1 UNK         0.0680 
     73 H73        34.8386  -43.9021  -54.5490 H         1 UNK         0.0680 
     74 H74        33.6698  -42.4435  -53.0423 H         1 UNK         0.0650 
     75 H75        33.1131  -42.7853  -51.4279 H         1 UNK         0.0650 
     76 H76        31.0116  -44.0921  -51.0396 H         1 UNK         0.1397 
     77 H77        28.0970  -43.7929  -54.1769 H         1 UNK         0.1363 
     78 H78        32.1921  -42.8440  -54.9677 H         1 UNK         0.1355 
     79 H79        29.0107  -42.2031  -56.2049 H         1 UNK         0.0707 
     80 H80        30.6133  -42.6749  -56.7341 H         1 UNK         0.0707 
     81 H81        29.4377  -43.0165  -58.8829 H         1 UNK         0.1034 
     82 H82        29.1480  -44.6590  -59.3833 H         1 UNK         0.1034 
     83 H83        27.0367  -42.6766  -58.4160 H         1 UNK         0.0482 
     84 H84        26.5240  -43.4262  -62.3730 H         1 UNK         0.3460 
     85 H85        26.1740  -44.6427  -61.1688 H         1 UNK         0.3460 
     86 H86        26.8277  -45.4707  -58.3246 H         1 UNK         0.2989 
     87 H87        24.4504  -45.8595  -57.0820 H         1 UNK         0.0559 
     88 H88        22.5615  -45.6733  -59.4830 H         1 UNK         0.0848 
     89 H89        22.3578  -44.8568  -57.9393 H         1 UNK         0.0848 
     90 H90        22.2692  -46.6053  -58.0134 H         1 UNK         0.0848 
     91 H91        24.2326  -47.5179  -59.4317 H         1 UNK         0.3144 
     92 H92        25.3268  -49.5842  -59.1531 H         1 UNK         0.0727 
     93 H93        27.8706  -48.2772  -60.3054 H         1 UNK         0.0790 
     94 H94        26.2835  -48.2370  -61.0628 H         1 UNK         0.0790 
     95 H95        27.1321  -49.7639  -60.8979 H         1 UNK         0.0790 
     96 H96        27.6830  -49.2329  -57.4880 H         1 UNK         0.3215 
     97 H97        28.0925  -52.8265  -57.1528 H         1 UNK         0.0863 
     98 H98        30.4405  -52.0281  -56.9764 H         1 UNK         0.0808 
     99 H99        30.0000  -50.5001  -57.7359 H         1 UNK         0.0808 
    100 H100       29.8808  -52.0005  -58.6408 H         1 UNK         0.0808 
    101 H101       28.5535  -50.2853  -55.6745 H         1 UNK         0.3118 
    102 H102       26.3235  -51.1231  -53.1106 H         1 UNK         0.0546 
    103 H103       29.3257  -51.6817  -52.8554 H         1 UNK         0.0828 
    104 H104       28.0269  -52.7646  -52.3762 H         1 UNK         0.0828 
    105 H105       28.2527  -51.2429  -51.5276 H         1 UNK         0.0828 
    106 H106       28.6119  -49.3393  -53.2961 H         1 UNK         0.3005 
    107 H107       26.9630  -46.8486  -55.1520 H         1 UNK         0.1257 
    108 H108       25.8966  -46.6164  -52.7440 H         1 UNK         0.0775 
    109 H109       26.7374  -45.3119  -53.4713 H         1 UNK         0.0775 
    110 H110       27.4403  -43.8760  -51.6889 H         1 UNK         0.0840 
    111 H111       28.6625  -44.2213  -50.5019 H         1 UNK         0.0840 
    112 H112       29.3461  -46.6166  -53.7181 H         1 UNK         0.2987 
    113 H113       31.4768  -48.7622  -55.4658 H         1 UNK         0.0785 
    114 H114       31.3290  -46.8529  -57.1366 H         1 UNK         0.0798 
    115 H115       32.8115  -46.8734  -56.2013 H         1 UNK         0.0798 
    116 H116       31.5298  -45.7247  -55.8051 H         1 UNK         0.0798 
    117 H117       32.2594  -46.7864  -53.6928 H         1 UNK         0.3079 
    118 H118       31.8007  -46.8334  -51.2534 H         1 UNK         0.0794 
    119 H119       31.6316  -49.7416  -50.2963 H         1 UNK         0.0786 
    120 H120       30.4170  -48.4963  -50.0552 H         1 UNK         0.0786 
    121 H121       31.9870  -48.3442  -49.2813 H         1 UNK         0.0786 
    122 H122       33.9789  -47.1558  -51.5040 H         1 UNK         0.3032 
    123 H123       36.1206  -48.8673  -51.0817 H         1 UNK         0.1094 
    124 H124       35.9110  -50.2862  -53.7906 H         1 UNK         0.0794 
    125 H125       37.4193  -49.9407  -52.9453 H         1 UNK         0.0794 
    126 H126       36.2430  -51.0346  -52.2370 H         1 UNK         0.0794 
    127 H127       36.5064  -46.9846  -52.1988 H         1 UNK         0.3016 
@<TRIPOS>BOND
     1    1    2 1    
     2    1   67 1    
     3    1   68 1    
     4    1   69 1    
     5    2    3 2    
     6    2    4 am   BACKBONE|DICT|INTERRES
     7    4    5 1    
     8    4   70 1    
     9    5    6 1    
    10    5   65 1    
    11    5   71 1    
    12    6    7 1    
    13    6   72 1    
    14    6   73 1    
    15    7    8 1    
    16    8    9 1    
    17    8   74 1    
    18    8   75 1    
    19    9   10 ar   
    20    9   14 ar   
    21   10   11 ar   
    22   10   76 1    
    23   11   12 ar   
    24   11   48 1    
    25   12   13 ar   
    26   12   77 1    
    27   13   14 ar   
    28   13   15 1    
    29   14   78 1    
    30   15   16 1    
    31   15   79 1    
    32   15   80 1    
    33   16   17 1    
    34   17   18 1    
    35   17   81 1    
    36   17   82 1    
    37   18   19 1    
    38   18   22 1    
    39   18   83 1    
    40   19   20 am   BACKBONE|DICT|INTERRES
    41   19   21 2    
    42   20   84 1    
    43   20   85 1    
    44   22   23 am   BACKBONE|DICT|INTERRES
    45   22   86 1    
    46   23   24 2    
    47   23   25 1    
    48   25   26 1    
    49   25   27 1    
    50   25   87 1    
    51   26   88 1    
    52   26   89 1    
    53   26   90 1    
    54   27   28 am   BACKBONE|DICT|INTERRES
    55   27   91 1    
    56   28   29 2    
    57   28   30 1    
    58   30   31 1    
    59   30   32 1    
    60   30   92 1    
    61   31   93 1    
    62   31   94 1    
    63   31   95 1    
    64   32   33 am   BACKBONE|DICT|INTERRES
    65   32   96 1    
    66   33   34 2    
    67   33   35 1    
    68   35   36 1    
    69   35   37 1    
    70   35   97 1    
    71   36   98 1    
    72   36   99 1    
    73   36  100 1    
    74   37   38 am   BACKBONE|DICT|INTERRES
    75   37  101 1    
    76   38   39 2    
    77   38   40 1    
    78   40   41 1    
    79   40   42 1    
    80   40  102 1    
    81   41  103 1    
    82   41  104 1    
    83   41  105 1    
    84   42   43 am   BACKBONE|DICT|INTERRES
    85   42  106 1    
    86   43   44 2    
    87   43   45 1    
    88   45   46 1    
    89   45   49 1    
    90   45  107 1    
    91   46   47 1    
    92   46  108 1    
    93   46  109 1    
    94   47   48 1    
    95   48  110 1    
    96   48  111 1    
    97   49   50 am   BACKBONE|DICT|INTERRES
    98   49  112 1    
    99   50   51 2    
   100   50   52 1    
   101   52   53 1    
   102   52   54 1    
   103   52  113 1    
   104   53  114 1    
   105   53  115 1    
   106   53  116 1    
   107   54   55 am   BACKBONE|DICT|INTERRES
   108   54  117 1    
   109   55   56 2    
   110   55   57 1    
   111   57   58 1    
   112   57   59 1    
   113   57  118 1    
   114   58  119 1    
   115   58  120 1    
   116   58  121 1    
   117   59   60 am   BACKBONE|DICT|INTERRES
   118   59  122 1    
   119   60   61 2    
   120   60   62 1    
   121   62   63 1    
   122   62   64 1    
   123   62  123 1    
   124   63  124 1    
   125   63  125 1    
   126   63  126 1    
   127   64   65 am   BACKBONE|DICT|INTERRES
   128   64  127 1    
   129   65   66 2    
@<TRIPOS>SUBSTRUCTURE
     1 UNK         1 GROUP             0       ****    0 ROOT    
