@<TRIPOS>MOLECULE
3R134
127   129    1
SMALL
USER_CHARGES


@<TRIPOS>ATOM
      1 CA         37.6086  -43.5037  -52.4670 C.3       0 UNK        -0.1968 
      2 C          36.2894  -43.8713  -53.1302 C.2       0 UNK         0.4852 
      3 O          36.2219  -43.9359  -54.3581 O.2       0 UNK        -0.5359 
      4 N          35.2438  -44.1054  -52.3258 N.am      1 UNK        -0.4300 
      5 CA         33.8972  -44.4800  -52.7762 C.3       1 UNK         0.0863 
      6 C6         32.8652  -44.3962  -51.6250 C.3       11 UNK        -0.0953 
      7 S7         32.7589  -42.7656  -50.8050 S.3       11 UNK        -0.2369 
      8 C8         32.3749  -41.6109  -52.1713 C.3       11 UNK         0.0226 
      9 C9         31.2454  -42.0667  -53.0924 C.ar      11 UNK        -0.0699 
     10 C10        30.0946  -42.6807  -52.5845 C.ar      11 UNK        -0.0804 
     11 C11        29.1083  -43.1671  -53.4469 C.ar      11 UNK        -0.0871 
     12 C12        29.2350  -42.9580  -54.8208 C.ar      11 UNK        -0.1008 
     13 C13        30.3627  -42.3204  -55.3415 C.ar      11 UNK        -0.0735 
     14 C14        31.3666  -41.8814  -54.4739 C.ar      11 UNK        -0.0945 
     15 C15        30.4942  -42.1149  -56.8428 C.3       11 UNK         0.0169 
     16 S16        31.5347  -43.3872  -57.6314 S.3       11 UNK        -0.2669 
     17 C17        30.5581  -44.9098  -57.3786 C.3       11 UNK        -0.0850 
     18 CA         29.3489  -45.0363  -58.3508 C.3       10 UNK         0.0855 
     19 C          29.6878  -45.7646  -59.6850 C.2       10 UNK         0.5543 
     20 N          28.7708  -46.5235  -60.2747 N.am      10 UNK        -0.7343 
     21 O          30.7927  -45.6385  -60.2054 O.2       10 UNK        -0.5027 
     22 N          28.1839  -45.6243  -57.6727 N.am      10 UNK        -0.4495 
     23 C          27.0366  -44.9915  -57.4010 C.2       10 UNK         0.4903 
     24 O          26.8614  -43.7866  -57.5865 O.2       10 UNK        -0.4860 
     25 CA         25.8896  -45.8463  -56.8163 C.3       9 UNK         0.0227 
     26 CB         24.5006  -45.2380  -57.1046 C.3       9 UNK        -0.1964 
     27 N          25.9166  -47.2647  -57.2152 N.am      9 UNK        -0.4231 
     28 C          25.9091  -47.7387  -58.4719 C.2       9 UNK         0.5014 
     29 O          25.9299  -47.0112  -59.4668 O.2       9 UNK        -0.5270 
     30 CA         25.8957  -49.2634  -58.6702 C.3       8 UNK         0.0284 
     31 CB         26.5911  -49.6854  -59.9829 C.3       8 UNK        -0.1977 
     32 N          26.4866  -50.0042  -57.5502 N.am      8 UNK        -0.4342 
     33 C          26.1154  -51.2511  -57.2229 C.2       8 UNK         0.5039 
     34 O          25.1404  -51.8234  -57.7135 O.2       8 UNK        -0.5547 
     35 CA         26.9884  -52.0222  -56.2211 C.3       7 UNK         0.0281 
     36 CB         28.2363  -52.5874  -56.9182 C.3       7 UNK        -0.1963 
     37 N          27.3881  -51.2399  -55.0535 N.am      7 UNK        -0.4444 
     38 C          26.5651  -50.9102  -54.0494 C.2       7 UNK         0.5104 
     39 O          25.3610  -51.1674  -54.0311 O.2       7 UNK        -0.5100 
     40 CA         27.1988  -50.1808  -52.8533 C.3       6 UNK         0.0396 
     41 CB         27.8762  -51.1798  -51.9013 C.3       6 UNK        -0.1801 
     42 N          28.1666  -49.1652  -53.2687 N.am      6 UNK        -0.4747 
     43 C          27.8274  -48.0085  -53.8531 C.2       6 UNK         0.5012 
     44 O          26.6650  -47.6818  -54.0924 O.2       6 UNK        -0.5003 
     45 CA         28.9830  -47.0827  -54.2864 C.3       5 UNK         0.0782 
     46 C46        29.6114  -46.2902  -53.1120 C.3       11 UNK        -0.0868 
     47 S47        28.4465  -45.4452  -51.9761 S.3       11 UNK        -0.2515 
     48 C48        27.9287  -43.9612  -52.9060 C.3       11 UNK         0.0199 
     49 N          30.0096  -47.8299  -55.0222 N.am      5 UNK        -0.4607 
     50 C          29.8137  -48.4487  -56.1958 C.2       4 UNK         0.5031 
     51 O          28.7689  -48.3646  -56.8413 O.2       4 UNK        -0.5119 
     52 CA         30.9478  -49.3386  -56.7345 C.3       4 UNK         0.0263 
     53 CB         31.8445  -48.5560  -57.7041 C.3       4 UNK        -0.1967 
     54 N          31.7807  -49.9402  -55.6921 N.am      4 UNK        -0.4237 
     55 C          31.3520  -50.7620  -54.7225 C.2       3 UNK         0.4908 
     56 O          30.1860  -51.1390  -54.6152 O.2       3 UNK        -0.5102 
     57 CA         32.3869  -51.2140  -53.6763 C.3       3 UNK         0.0241 
     58 CB         32.8774  -52.6362  -53.9900 C.3       3 UNK        -0.1971 
     59 N          33.5395  -50.3108  -53.5704 N.am      3 UNK        -0.4139 
     60 C          33.4766  -49.0479  -53.1236 C.2       2 UNK         0.5016 
     61 O          32.4435  -48.5459  -52.6732 O.2       2 UNK        -0.5319 
     62 CA         34.7837  -48.2301  -53.2106 C.3       2 UNK         0.0286 
     63 CB         35.4423  -48.3280  -54.6058 C.3       2 UNK        -0.1963 
     64 N          34.6267  -46.8194  -52.8290 N.am      2 UNK        -0.4790 
     65 C          33.8583  -45.8847  -53.4152 C.2       1 UNK         0.5024 
     66 O          33.1540  -46.0818  -54.4074 O.2       1 UNK        -0.4888 
     67 H67        38.3752  -44.2330  -52.7274 H         1 UNK         0.0892 
     68 H68        37.9400  -42.5237  -52.8092 H         1 UNK         0.0892 
     69 H69        37.5254  -43.4725  -51.3807 H         1 UNK         0.0892 
     70 H70        35.3549  -44.0065  -51.3265 H         1 UNK         0.3107 
     71 H71        33.6033  -43.7765  -53.5573 H         1 UNK         0.0773 
     72 H72        31.8715  -44.6645  -51.9827 H         1 UNK         0.0680 
     73 H73        33.1018  -45.1299  -50.8521 H         1 UNK         0.0680 
     74 H74        33.2900  -41.4500  -52.7434 H         1 UNK         0.0650 
     75 H75        32.1073  -40.6439  -51.7441 H         1 UNK         0.0650 
     76 H76        29.9913  -42.8365  -51.5194 H         1 UNK         0.1397 
     77 H77        28.4677  -43.3132  -55.4930 H         1 UNK         0.1363 
     78 H78        32.2478  -41.4037  -54.8803 H         1 UNK         0.1355 
     79 H79        29.5103  -42.1031  -57.3144 H         1 UNK         0.0707 
     80 H80        30.9325  -41.1350  -57.0375 H         1 UNK         0.0707 
     81 H81        31.2305  -45.7611  -57.4760 H         1 UNK         0.1034 
     82 H82        30.2353  -44.9393  -56.3390 H         1 UNK         0.1034 
     83 H83        29.0761  -44.0324  -58.6778 H         1 UNK         0.0482 
     84 H84        27.8301  -46.5970  -59.9021 H         1 UNK         0.3460 
     85 H85        29.0021  -46.9828  -61.1406 H         1 UNK         0.3460 
     86 H86        28.2386  -46.6257  -57.5059 H         1 UNK         0.2989 
     87 H87        26.0297  -45.8234  -55.7364 H         1 UNK         0.0559 
     88 H88        24.4163  -44.2328  -56.6898 H         1 UNK         0.0848 
     89 H89        23.7053  -45.8355  -56.6592 H         1 UNK         0.0848 
     90 H90        24.3065  -45.1650  -58.1752 H         1 UNK         0.0848 
     91 H91        25.9298  -47.9284  -56.4515 H         1 UNK         0.3144 
     92 H92        24.8383  -49.5238  -58.7507 H         1 UNK         0.0727 
     93 H93        27.6505  -49.4258  -59.9723 H         1 UNK         0.0790 
     94 H94        26.1411  -49.1971  -60.8483 H         1 UNK         0.0790 
     95 H95        26.5118  -50.7595  -60.1503 H         1 UNK         0.0790 
     96 H96        27.3118  -49.5868  -57.1243 H         1 UNK         0.3215 
     97 H97        26.4005  -52.8707  -55.8633 H         1 UNK         0.0863 
     98 H98        28.8364  -53.1880  -56.2342 H         1 UNK         0.0808 
     99 H99        28.8712  -51.7962  -57.3141 H         1 UNK         0.0808 
    100 H100       27.9576  -53.2294  -57.7549 H         1 UNK         0.0808 
    101 H101       28.3826  -51.0483  -54.9439 H         1 UNK         0.3118 
    102 H102       26.3975  -49.6833  -52.3025 H         1 UNK         0.0546 
    103 H103       28.2685  -50.6801  -51.0156 H         1 UNK         0.0828 
    104 H104       28.7011  -51.7066  -52.3825 H         1 UNK         0.0828 
    105 H105       27.1655  -51.9332  -51.5589 H         1 UNK         0.0828 
    106 H106       29.1455  -49.3913  -53.1611 H         1 UNK         0.3005 
    107 H107       28.5534  -46.3531  -54.9737 H         1 UNK         0.1257 
    108 H108       30.3236  -45.5653  -53.5069 H         1 UNK         0.0775 
    109 H109       30.2065  -46.9655  -52.4948 H         1 UNK         0.0775 
    110 H110       27.2637  -44.2718  -53.7135 H         1 UNK         0.0840 
    111 H111       27.3369  -43.3206  -52.2509 H         1 UNK         0.0840 
    112 H112       30.9023  -47.9402  -54.5578 H         1 UNK         0.2987 
    113 H113       30.4816  -50.1514  -57.2922 H         1 UNK         0.0785 
    114 H114       31.2548  -48.0882  -58.4932 H         1 UNK         0.0798 
    115 H115       32.5648  -49.2125  -58.1926 H         1 UNK         0.0798 
    116 H116       32.4032  -47.7706  -57.1936 H         1 UNK         0.0798 
    117 H117       32.7581  -49.6910  -55.6987 H         1 UNK         0.3079 
    118 H118       31.8814  -51.2312  -52.7083 H         1 UNK         0.0794 
    119 H119       32.0397  -53.3330  -54.0491 H         1 UNK         0.0786 
    120 H120       33.5481  -53.0055  -53.2139 H         1 UNK         0.0786 
    121 H121       33.4065  -52.6819  -54.9428 H         1 UNK         0.0786 
    122 H122       34.4256  -50.6692  -53.8970 H         1 UNK         0.3032 
    123 H123       35.4676  -48.6672  -52.4809 H         1 UNK         0.1094 
    124 H124       36.3293  -47.6968  -54.6663 H         1 UNK         0.0794 
    125 H125       35.7657  -49.3446  -54.8310 H         1 UNK         0.0794 
    126 H126       34.7627  -48.0164  -55.3999 H         1 UNK         0.0794 
    127 H127       35.1400  -46.5382  -52.0057 H         1 UNK         0.3016 
@<TRIPOS>BOND
     1    1    2 1    
     2    1   67 1    
     3    1   68 1    
     4    1   69 1    
     5    2    3 2    
     6    2    4 am   BACKBONE|DICT|INTERRES
     7    4    5 1    
     8    4   70 1    
     9    5    6 1    
    10    5   65 1    
    11    5   71 1    
    12    6    7 1    
    13    6   72 1    
    14    6   73 1    
    15    7    8 1    
    16    8    9 1    
    17    8   74 1    
    18    8   75 1    
    19    9   10 ar   
    20    9   14 ar   
    21   10   11 ar   
    22   10   76 1    
    23   11   12 ar   
    24   11   48 1    
    25   12   13 ar   
    26   12   77 1    
    27   13   14 ar   
    28   13   15 1    
    29   14   78 1    
    30   15   16 1    
    31   15   79 1    
    32   15   80 1    
    33   16   17 1    
    34   17   18 1    
    35   17   81 1    
    36   17   82 1    
    37   18   19 1    
    38   18   22 1    
    39   18   83 1    
    40   19   20 am   BACKBONE|DICT|INTERRES
    41   19   21 2    
    42   20   84 1    
    43   20   85 1    
    44   22   23 am   BACKBONE|DICT|INTERRES
    45   22   86 1    
    46   23   24 2    
    47   23   25 1    
    48   25   26 1    
    49   25   27 1    
    50   25   87 1    
    51   26   88 1    
    52   26   89 1    
    53   26   90 1    
    54   27   28 am   BACKBONE|DICT|INTERRES
    55   27   91 1    
    56   28   29 2    
    57   28   30 1    
    58   30   31 1    
    59   30   32 1    
    60   30   92 1    
    61   31   93 1    
    62   31   94 1    
    63   31   95 1    
    64   32   33 am   BACKBONE|DICT|INTERRES
    65   32   96 1    
    66   33   34 2    
    67   33   35 1    
    68   35   36 1    
    69   35   37 1    
    70   35   97 1    
    71   36   98 1    
    72   36   99 1    
    73   36  100 1    
    74   37   38 am   BACKBONE|DICT|INTERRES
    75   37  101 1    
    76   38   39 2    
    77   38   40 1    
    78   40   41 1    
    79   40   42 1    
    80   40  102 1    
    81   41  103 1    
    82   41  104 1    
    83   41  105 1    
    84   42   43 am   BACKBONE|DICT|INTERRES
    85   42  106 1    
    86   43   44 2    
    87   43   45 1    
    88   45   46 1    
    89   45   49 1    
    90   45  107 1    
    91   46   47 1    
    92   46  108 1    
    93   46  109 1    
    94   47   48 1    
    95   48  110 1    
    96   48  111 1    
    97   49   50 am   BACKBONE|DICT|INTERRES
    98   49  112 1    
    99   50   51 2    
   100   50   52 1    
   101   52   53 1    
   102   52   54 1    
   103   52  113 1    
   104   53  114 1    
   105   53  115 1    
   106   53  116 1    
   107   54   55 am   BACKBONE|DICT|INTERRES
   108   54  117 1    
   109   55   56 2    
   110   55   57 1    
   111   57   58 1    
   112   57   59 1    
   113   57  118 1    
   114   58  119 1    
   115   58  120 1    
   116   58  121 1    
   117   59   60 am   BACKBONE|DICT|INTERRES
   118   59  122 1    
   119   60   61 2    
   120   60   62 1    
   121   62   63 1    
   122   62   64 1    
   123   62  123 1    
   124   63  124 1    
   125   63  125 1    
   126   63  126 1    
   127   64   65 am   BACKBONE|DICT|INTERRES
   128   64  127 1    
   129   65   66 2    
@<TRIPOS>SUBSTRUCTURE
     1 UNK         1 GROUP             0       ****    0 ROOT    
