@<TRIPOS>MOLECULE
3R134
127   129    1
SMALL
USER_CHARGES


@<TRIPOS>ATOM
      1 CA         35.6203  -43.5947  -48.9469 C.3       0 UNK        -0.1968 
      2 C          35.9765  -44.2022  -50.2962 C.2       0 UNK         0.4852 
      3 O          37.1543  -44.2411  -50.6565 O.2       0 UNK        -0.5359 
      4 N          34.9688  -44.6679  -51.0459 N.am      1 UNK        -0.4300 
      5 CA         35.1297  -45.3454  -52.3351 C.3       1 UNK         0.0863 
      6 C6         33.7952  -45.3590  -53.1220 C.3       11 UNK        -0.0953 
      7 S7         34.0376  -45.6271  -54.9090 S.3       11 UNK        -0.2369 
      8 C8         32.3630  -46.1085  -55.4319 C.3       11 UNK         0.0226 
      9 C9         31.3687  -44.9654  -55.3025 C.ar      11 UNK        -0.0699 
     10 C10        30.4827  -44.9153  -54.2223 C.ar      11 UNK        -0.0804 
     11 C11        29.5579  -43.8724  -54.1135 C.ar      11 UNK        -0.0871 
     12 C12        29.5394  -42.8657  -55.0849 C.ar      11 UNK        -0.1008 
     13 C13        30.4250  -42.9011  -56.1681 C.ar      11 UNK        -0.0735 
     14 C14        31.3317  -43.9599  -56.2722 C.ar      11 UNK        -0.0945 
     15 C15        30.4549  -41.7818  -57.2063 C.3       11 UNK         0.0169 
     16 S16        28.8093  -41.2456  -57.7829 S.3       11 UNK        -0.2669 
     17 C17        28.1838  -42.7430  -58.6187 C.3       11 UNK        -0.0850 
     18 CA         26.7236  -43.0662  -58.2071 C.3       10 UNK         0.0855 
     19 C          25.7027  -42.1629  -58.9556 C.2       10 UNK         0.5543 
     20 N          25.2278  -41.0988  -58.3232 N.am      10 UNK        -0.7343 
     21 O          25.3680  -42.4029  -60.1144 O.2       10 UNK        -0.5027 
     22 N          26.4439  -44.4950  -58.3871 N.am      10 UNK        -0.4495 
     23 C          25.3418  -45.1352  -57.9822 C.2       10 UNK         0.4903 
     24 O          24.4239  -44.5973  -57.3620 O.2       10 UNK        -0.4860 
     25 CA         25.2468  -46.6388  -58.2970 C.3       9 UNK         0.0227 
     26 CB         24.6341  -46.8852  -59.6894 C.3       9 UNK        -0.1964 
     27 N          26.5058  -47.3742  -58.1110 N.am      9 UNK        -0.4231 
     28 C          27.6380  -47.3247  -58.8282 C.2       9 UNK         0.5014 
     29 O          27.7971  -46.5979  -59.8100 O.2       9 UNK        -0.5270 
     30 CA         28.8123  -48.1978  -58.3516 C.3       8 UNK         0.0284 
     31 CB         29.7898  -47.3613  -57.5127 C.3       8 UNK        -0.1977 
     32 N          28.4049  -49.3726  -57.5766 N.am      8 UNK        -0.4342 
     33 C          27.7730  -50.4426  -58.0798 C.2       8 UNK         0.5039 
     34 O          27.4615  -50.5634  -59.2651 O.2       8 UNK        -0.5547 
     35 CA         27.4242  -51.5636  -57.0902 C.3       7 UNK         0.0281 
     36 CB         28.6581  -52.4317  -56.7901 C.3       7 UNK        -0.1963 
     37 N          26.8840  -51.0201  -55.8427 N.am      7 UNK        -0.4444 
     38 C          25.5929  -50.7146  -55.6488 C.2       7 UNK         0.5104 
     39 O          24.7084  -50.9181  -56.4805 O.2       7 UNK        -0.5100 
     40 CA         25.2165  -50.0683  -54.3007 C.3       6 UNK         0.0396 
     41 CB         24.7802  -51.1456  -53.2953 C.3       6 UNK        -0.1801 
     42 N          26.2921  -49.2651  -53.7116 N.am      6 UNK        -0.4747 
     43 C          26.7771  -48.1329  -54.2442 C.2       6 UNK         0.5012 
     44 O          26.3374  -47.6291  -55.2755 O.2       6 UNK        -0.5003 
     45 CA         28.0115  -47.5094  -53.5567 C.3       5 UNK         0.0782 
     46 C46        27.6237  -46.4531  -52.4930 C.3       11 UNK        -0.0868 
     47 S47        27.1212  -44.8520  -53.2143 S.3       11 UNK        -0.2515 
     48 C48        28.5931  -43.8122  -52.9378 C.3       11 UNK         0.0199 
     49 N          28.9110  -48.5269  -52.9954 N.am      5 UNK        -0.4607 
     50 C          29.5458  -49.4564  -53.7191 C.2       4 UNK         0.5031 
     51 O          29.4269  -49.5685  -54.9412 O.2       4 UNK        -0.5119 
     52 CA         30.4018  -50.4727  -52.9511 C.3       4 UNK         0.0263 
     53 CB         29.6513  -51.8078  -52.8162 C.3       4 UNK        -0.1967 
     54 N          31.6703  -50.6943  -53.6445 N.am      4 UNK        -0.4237 
     55 C          32.6635  -49.7981  -53.6714 C.2       3 UNK         0.4908 
     56 O          32.6513  -48.7486  -53.0241 O.2       3 UNK        -0.5102 
     57 CA         33.8420  -50.1157  -54.6024 C.3       3 UNK         0.0241 
     58 CB         33.4581  -49.8445  -56.0680 C.3       3 UNK        -0.1971 
     59 N          34.9886  -49.2781  -54.2538 N.am      3 UNK        -0.4139 
     60 C          36.0318  -49.6669  -53.5106 C.2       2 UNK         0.5016 
     61 O          36.2057  -50.8214  -53.1174 O.2       2 UNK        -0.5319 
     62 CA         37.0626  -48.5842  -53.1406 C.3       2 UNK         0.0286 
     63 CB         38.2459  -48.6113  -54.1218 C.3       2 UNK        -0.1963 
     64 N          36.4930  -47.2326  -53.1112 N.am      2 UNK        -0.4790 
     65 C          35.6953  -46.7693  -52.1388 C.2       1 UNK         0.5024 
     66 O          35.3920  -47.4213  -51.1361 O.2       1 UNK        -0.4888 
     67 H67        34.5463  -43.6109  -48.7624 H         1 UNK         0.0892 
     68 H68        35.9562  -42.5591  -48.9011 H         1 UNK         0.0892 
     69 H69        36.1100  -44.1480  -48.1460 H         1 UNK         0.0892 
     70 H70        34.0277  -44.6404  -50.6810 H         1 UNK         0.3107 
     71 H71        35.8577  -44.7658  -52.9078 H         1 UNK         0.0773 
     72 H72        33.2903  -44.3971  -53.0172 H         1 UNK         0.0680 
     73 H73        33.1074  -46.1061  -52.7215 H         1 UNK         0.0680 
     74 H74        32.4101  -46.4285  -56.4731 H         1 UNK         0.0650 
     75 H75        32.0278  -46.9740  -54.8606 H         1 UNK         0.0650 
     76 H76        30.5137  -45.6887  -53.4671 H         1 UNK         0.1397 
     77 H77        28.8382  -42.0474  -54.9947 H         1 UNK         0.1363 
     78 H78        32.0268  -43.9961  -57.1000 H         1 UNK         0.1355 
     79 H79        31.0435  -42.0777  -58.0763 H         1 UNK         0.0707 
     80 H80        30.9650  -40.9226  -56.7693 H         1 UNK         0.0707 
     81 H81        28.8355  -43.5783  -58.3572 H         1 UNK         0.1034 
     82 H82        28.2789  -42.6247  -59.7000 H         1 UNK         0.1034 
     83 H83        26.6231  -42.8822  -57.1350 H         1 UNK         0.0482 
     84 H84        24.5752  -40.4944  -58.7972 H         1 UNK         0.3460 
     85 H85        25.5204  -40.8834  -57.3828 H         1 UNK         0.3460 
     86 H86        27.1044  -45.0271  -58.9451 H         1 UNK         0.2989 
     87 H87        24.5615  -47.0653  -57.5626 H         1 UNK         0.0559 
     88 H88        24.5210  -47.9507  -59.8897 H         1 UNK         0.0848 
     89 H89        25.2408  -46.4555  -60.4869 H         1 UNK         0.0848 
     90 H90        23.6437  -46.4339  -59.7611 H         1 UNK         0.0848 
     91 H91        26.5416  -47.8967  -57.2411 H         1 UNK         0.3144 
     92 H92        29.3399  -48.5501  -59.2404 H         1 UNK         0.0727 
     93 H93        30.6435  -47.9586  -57.1925 H         1 UNK         0.0790 
     94 H94        29.3113  -46.9549  -56.6214 H         1 UNK         0.0790 
     95 H95        30.1771  -46.5180  -58.0862 H         1 UNK         0.0790 
     96 H96        28.6864  -49.3923  -56.5975 H         1 UNK         0.3215 
     97 H97        26.6725  -52.2034  -57.5586 H         1 UNK         0.0863 
     98 H98        28.4124  -53.2481  -56.1110 H         1 UNK         0.0808 
     99 H99        29.4680  -51.8547  -56.3431 H         1 UNK         0.0808 
    100 H100       29.0476  -52.8792  -57.7055 H         1 UNK         0.0808 
    101 H101       27.5538  -50.7670  -55.1294 H         1 UNK         0.3118 
    102 H102       24.3665  -49.4066  -54.4806 H         1 UNK         0.0546 
    103 H103       25.5946  -51.8305  -53.0557 H         1 UNK         0.0828 
    104 H104       23.9602  -51.7434  -53.6962 H         1 UNK         0.0828 
    105 H105       24.4280  -50.7015  -52.3641 H         1 UNK         0.0828 
    106 H106       26.7121  -49.6144  -52.8623 H         1 UNK         0.3005 
    107 H107       28.5739  -47.0060  -54.3450 H         1 UNK         0.1257 
    108 H108       28.4623  -46.2755  -51.8186 H         1 UNK         0.0775 
    109 H109       26.8160  -46.8179  -51.8553 H         1 UNK         0.0775 
    110 H110       28.2600  -42.7842  -52.7868 H         1 UNK         0.0840 
    111 H111       29.1006  -44.0935  -52.0142 H         1 UNK         0.0840 
    112 H112       29.0471  -48.5070  -51.9948 H         1 UNK         0.2987 
    113 H113       30.6113  -50.0874  -51.9506 H         1 UNK         0.0785 
    114 H114       29.4224  -52.2469  -53.7878 H         1 UNK         0.0798 
    115 H115       28.7064  -51.6751  -52.2874 H         1 UNK         0.0798 
    116 H116       30.2359  -52.5342  -52.2514 H         1 UNK         0.0798 
    117 H117       31.7298  -51.5127  -54.2326 H         1 UNK         0.3079 
    118 H118       34.0958  -51.1725  -54.4941 H         1 UNK         0.0794 
    119 H119       33.1913  -48.8007  -56.2315 H         1 UNK         0.0786 
    120 H120       32.6030  -50.4492  -56.3734 H         1 UNK         0.0786 
    121 H121       34.2805  -50.0865  -56.7415 H         1 UNK         0.0786 
    122 H122       34.8945  -48.2925  -54.4535 H         1 UNK         0.3032 
    123 H123       37.4399  -48.8225  -52.1431 H         1 UNK         0.1094 
    124 H124       39.0199  -47.9009  -53.8305 H         1 UNK         0.0794 
    125 H125       38.7087  -49.5991  -54.1468 H         1 UNK         0.0794 
    126 H126       37.9342  -48.3722  -55.1394 H         1 UNK         0.0794 
    127 H127       36.6931  -46.6357  -53.9021 H         1 UNK         0.3016 
@<TRIPOS>BOND
     1    1    2 1    
     2    1   67 1    
     3    1   68 1    
     4    1   69 1    
     5    2    3 2    
     6    2    4 am   BACKBONE|DICT|INTERRES
     7    4    5 1    
     8    4   70 1    
     9    5    6 1    
    10    5   65 1    
    11    5   71 1    
    12    6    7 1    
    13    6   72 1    
    14    6   73 1    
    15    7    8 1    
    16    8    9 1    
    17    8   74 1    
    18    8   75 1    
    19    9   10 ar   
    20    9   14 ar   
    21   10   11 ar   
    22   10   76 1    
    23   11   12 ar   
    24   11   48 1    
    25   12   13 ar   
    26   12   77 1    
    27   13   14 ar   
    28   13   15 1    
    29   14   78 1    
    30   15   16 1    
    31   15   79 1    
    32   15   80 1    
    33   16   17 1    
    34   17   18 1    
    35   17   81 1    
    36   17   82 1    
    37   18   19 1    
    38   18   22 1    
    39   18   83 1    
    40   19   20 am   BACKBONE|DICT|INTERRES
    41   19   21 2    
    42   20   84 1    
    43   20   85 1    
    44   22   23 am   BACKBONE|DICT|INTERRES
    45   22   86 1    
    46   23   24 2    
    47   23   25 1    
    48   25   26 1    
    49   25   27 1    
    50   25   87 1    
    51   26   88 1    
    52   26   89 1    
    53   26   90 1    
    54   27   28 am   BACKBONE|DICT|INTERRES
    55   27   91 1    
    56   28   29 2    
    57   28   30 1    
    58   30   31 1    
    59   30   32 1    
    60   30   92 1    
    61   31   93 1    
    62   31   94 1    
    63   31   95 1    
    64   32   33 am   BACKBONE|DICT|INTERRES
    65   32   96 1    
    66   33   34 2    
    67   33   35 1    
    68   35   36 1    
    69   35   37 1    
    70   35   97 1    
    71   36   98 1    
    72   36   99 1    
    73   36  100 1    
    74   37   38 am   BACKBONE|DICT|INTERRES
    75   37  101 1    
    76   38   39 2    
    77   38   40 1    
    78   40   41 1    
    79   40   42 1    
    80   40  102 1    
    81   41  103 1    
    82   41  104 1    
    83   41  105 1    
    84   42   43 am   BACKBONE|DICT|INTERRES
    85   42  106 1    
    86   43   44 2    
    87   43   45 1    
    88   45   46 1    
    89   45   49 1    
    90   45  107 1    
    91   46   47 1    
    92   46  108 1    
    93   46  109 1    
    94   47   48 1    
    95   48  110 1    
    96   48  111 1    
    97   49   50 am   BACKBONE|DICT|INTERRES
    98   49  112 1    
    99   50   51 2    
   100   50   52 1    
   101   52   53 1    
   102   52   54 1    
   103   52  113 1    
   104   53  114 1    
   105   53  115 1    
   106   53  116 1    
   107   54   55 am   BACKBONE|DICT|INTERRES
   108   54  117 1    
   109   55   56 2    
   110   55   57 1    
   111   57   58 1    
   112   57   59 1    
   113   57  118 1    
   114   58  119 1    
   115   58  120 1    
   116   58  121 1    
   117   59   60 am   BACKBONE|DICT|INTERRES
   118   59  122 1    
   119   60   61 2    
   120   60   62 1    
   121   62   63 1    
   122   62   64 1    
   123   62  123 1    
   124   63  124 1    
   125   63  125 1    
   126   63  126 1    
   127   64   65 am   BACKBONE|DICT|INTERRES
   128   64  127 1    
   129   65   66 2    
@<TRIPOS>SUBSTRUCTURE
     1 UNK         1 GROUP             0       ****    0 ROOT    
