@<TRIPOS>MOLECULE
3R134
127   129    1
SMALL
USER_CHARGES


@<TRIPOS>ATOM
      1 CA         37.8558  -47.6748  -54.7206 C.3       0 UNK        -0.1968 
      2 C          36.4329  -47.3482  -54.2960 C.2       0 UNK         0.4852 
      3 O          35.5867  -48.2425  -54.2656 O.2       0 UNK        -0.5359 
      4 N          36.1656  -46.0802  -53.9520 N.am      1 UNK        -0.4300 
      5 CA         34.8534  -45.5369  -53.5657 C.3       1 UNK         0.0863 
      6 C6         34.9355  -44.0218  -53.2691 C.3       11 UNK        -0.0953 
      7 S7         35.2083  -43.0836  -54.8094 S.3       11 UNK        -0.2369 
      8 C8         33.7259  -42.0266  -54.8962 C.3       11 UNK         0.0226 
      9 C9         32.4205  -42.8141  -54.9197 C.ar      11 UNK        -0.0699 
     10 C10        31.5892  -42.8225  -53.7938 C.ar      11 UNK        -0.0804 
     11 C11        30.3640  -43.4954  -53.8096 C.ar      11 UNK        -0.0871 
     12 C12        29.9679  -44.1410  -54.9843 C.ar      11 UNK        -0.1008 
     13 C13        30.8010  -44.1786  -56.1044 C.ar      11 UNK        -0.0735 
     14 C14        32.0271  -43.5073  -56.0697 C.ar      11 UNK        -0.0945 
     15 C15        30.3818  -44.9781  -57.3308 C.3       11 UNK         0.0169 
     16 S16        29.5568  -43.9684  -58.6007 S.3       11 UNK        -0.2669 
     17 C17        28.0677  -43.3497  -57.7385 C.3       11 UNK        -0.0850 
     18 CA         27.0052  -44.4316  -57.3677 C.3       10 UNK         0.0855 
     19 C          25.7991  -43.8172  -56.5938 C.2       10 UNK         0.5543 
     20 N          24.5578  -44.2134  -56.8517 N.am      10 UNK        -0.7343 
     21 O          25.9932  -42.9786  -55.7177 O.2       10 UNK        -0.5027 
     22 N          26.6240  -45.3242  -58.4743 N.am      10 UNK        -0.4495 
     23 C          26.1243  -44.9586  -59.6634 C.2       10 UNK         0.4903 
     24 O          26.0003  -43.7930  -60.0395 O.2       10 UNK        -0.4860 
     25 CA         25.6430  -46.0942  -60.5866 C.3       9 UNK         0.0227 
     26 CB         26.7842  -46.5507  -61.5100 C.3       9 UNK        -0.1964 
     27 N          25.1086  -47.2539  -59.8642 N.am      9 UNK        -0.4231 
     28 C          24.0635  -47.2297  -59.0229 C.2       9 UNK         0.5014 
     29 O          23.3876  -46.2244  -58.8000 O.2       9 UNK        -0.5270 
     30 CA         23.7327  -48.5328  -58.2727 C.3       8 UNK         0.0284 
     31 CB         22.5999  -49.2886  -58.9863 C.3       8 UNK        -0.1977 
     32 N          24.8744  -49.4365  -58.0819 N.am      8 UNK        -0.4342 
     33 C          25.9877  -49.1442  -57.3955 C.2       8 UNK         0.5039 
     34 O          26.2262  -48.0369  -56.9062 O.2       8 UNK        -0.5547 
     35 CA         27.0327  -50.2635  -57.2924 C.3       7 UNK         0.0281 
     36 CB         28.1381  -50.0603  -58.3420 C.3       7 UNK        -0.1963 
     37 N          27.6220  -50.2869  -55.9534 N.am      7 UNK        -0.4444 
     38 C          27.0595  -50.8945  -54.8964 C.2       7 UNK         0.5104 
     39 O          26.0163  -51.5462  -54.9677 O.2       7 UNK        -0.5100 
     40 CA         27.7670  -50.7839  -53.5294 C.3       6 UNK         0.0396 
     41 CB         28.5395  -52.0764  -53.2231 C.3       6 UNK        -0.1801 
     42 N          28.6788  -49.6413  -53.4432 N.am      6 UNK        -0.4747 
     43 C          28.2734  -48.3644  -53.3516 C.2       6 UNK         0.5012 
     44 O          27.0988  -48.0504  -53.1564 O.2       6 UNK        -0.5003 
     45 CA         29.3268  -47.2489  -53.5544 C.3       5 UNK         0.0782 
     46 C46        29.4803  -46.3289  -52.3115 C.3       11 UNK        -0.0868 
     47 S47        28.3435  -44.8997  -52.3667 S.3       11 UNK        -0.2515 
     48 C48        29.4886  -43.4815  -52.5535 C.3       11 UNK         0.0199 
     49 N          30.6226  -47.7259  -54.0585 N.am      5 UNK        -0.4607 
     50 C          30.8024  -48.2580  -55.2764 C.2       4 UNK         0.5031 
     51 O          29.8961  -48.3762  -56.0983 O.2       4 UNK        -0.5119 
     52 CA         32.1939  -48.8010  -55.6352 C.3       4 UNK         0.0263 
     53 CB         32.9807  -47.7595  -56.4446 C.3       4 UNK        -0.1967 
     54 N          32.9873  -49.2546  -54.4878 N.am      4 UNK        -0.4237 
     55 C          32.6395  -50.2542  -53.6615 C.2       3 UNK         0.4908 
     56 O          31.5584  -50.8400  -53.7176 O.2       3 UNK        -0.5102 
     57 CA         33.6594  -50.6675  -52.5915 C.3       3 UNK         0.0241 
     58 CB         34.7671  -51.5382  -53.2075 C.3       3 UNK        -0.1971 
     59 N          34.2559  -49.4927  -51.9584 N.am      3 UNK        -0.4139 
     60 C          33.8608  -48.9758  -50.7867 C.2       2 UNK         0.5016 
     61 O          33.0117  -49.4920  -50.0590 O.2       2 UNK        -0.5319 
     62 CA         34.5102  -47.6482  -50.3473 C.3       2 UNK         0.0286 
     63 CB         35.6870  -47.9149  -49.3950 C.3       2 UNK        -0.1963 
     64 N          34.9724  -46.8125  -51.4608 N.am      2 UNK        -0.4790 
     65 C          34.1751  -46.2926  -52.4059 C.2       1 UNK         0.5024 
     66 O          32.9535  -46.4387  -52.4189 O.2       1 UNK        -0.4888 
     67 H67        37.8603  -48.0685  -55.7365 H         1 UNK         0.0892 
     68 H68        38.5023  -46.7979  -54.6929 H         1 UNK         0.0892 
     69 H69        38.2790  -48.4311  -54.0602 H         1 UNK         0.0892 
     70 H70        36.9068  -45.3960  -54.0066 H         1 UNK         0.3107 
     71 H71        34.1954  -45.6695  -54.4240 H         1 UNK         0.0773 
     72 H72        35.7483  -43.8054  -52.5737 H         1 UNK         0.0680 
     73 H73        34.0279  -43.6620  -52.7832 H         1 UNK         0.0680 
     74 H74        33.7881  -41.4130  -55.7959 H         1 UNK         0.0650 
     75 H75        33.7411  -41.3313  -54.0555 H         1 UNK         0.0650 
     76 H76        31.8947  -42.2940  -52.9009 H         1 UNK         0.1397 
     77 H77        29.0049  -44.6217  -55.0303 H         1 UNK         0.1363 
     78 H78        32.6724  -43.5187  -56.9375 H         1 UNK         0.1355 
     79 H79        29.7261  -45.8014  -57.0445 H         1 UNK         0.0707 
     80 H80        31.2617  -45.4417  -57.7782 H         1 UNK         0.0707 
     81 H81        28.3923  -42.8112  -56.8471 H         1 UNK         0.1034 
     82 H82        27.6151  -42.5881  -58.3751 H         1 UNK         0.1034 
     83 H83        27.4656  -45.1014  -56.6428 H         1 UNK         0.0482 
     84 H84        23.7976  -43.8079  -56.3297 H         1 UNK         0.3460 
     85 H85        24.3617  -44.9014  -57.5692 H         1 UNK         0.3460 
     86 H86        26.6257  -46.3093  -58.2365 H         1 UNK         0.2989 
     87 H87        24.8380  -45.6954  -61.2073 H         1 UNK         0.0559 
     88 H88        27.6116  -46.9844  -60.9465 H         1 UNK         0.0848 
     89 H89        27.1849  -45.7097  -62.0781 H         1 UNK         0.0848 
     90 H90        26.4415  -47.2921  -62.2320 H         1 UNK         0.0848 
     91 H91        25.5974  -48.1291  -59.9813 H         1 UNK         0.3144 
     92 H92        23.3783  -48.2468  -57.2800 H         1 UNK         0.0727 
     93 H93        22.2772  -50.1573  -58.4120 H         1 UNK         0.0790 
     94 H94        22.9031  -49.6318  -59.9763 H         1 UNK         0.0790 
     95 H95        21.7259  -48.6486  -59.1175 H         1 UNK         0.0790 
     96 H96        24.7744  -50.3671  -58.4630 H         1 UNK         0.3215 
     97 H97        26.5546  -51.2269  -57.4841 H         1 UNK         0.0863 
     98 H98        28.5959  -49.0734  -58.2641 H         1 UNK         0.0808 
     99 H99        27.7377  -50.1509  -59.3524 H         1 UNK         0.0808 
    100 H100       28.9279  -50.8045  -58.2383 H         1 UNK         0.0808 
    101 H101       28.4368  -49.6961  -55.8162 H         1 UNK         0.3118 
    102 H102       26.9951  -50.6657  -52.7661 H         1 UNK         0.0546 
    103 H103       29.0382  -52.0239  -52.2552 H         1 UNK         0.0828 
    104 H104       29.2969  -52.2824  -53.9803 H         1 UNK         0.0828 
    105 H105       27.8669  -52.9347  -53.1957 H         1 UNK         0.0828 
    106 H106       29.6641  -49.8371  -53.5873 H         1 UNK         0.3005 
    107 H107       28.9073  -46.6602  -54.3690 H         1 UNK         0.1257 
    108 H108       30.4931  -45.9343  -52.2472 H         1 UNK         0.0775 
    109 H109       29.3260  -46.8779  -51.3807 H         1 UNK         0.0775 
    110 H110       28.8998  -42.5634  -52.5570 H         1 UNK         0.0840 
    111 H111       30.1195  -43.4384  -51.6641 H         1 UNK         0.0840 
    112 H112       31.4205  -47.6204  -53.4427 H         1 UNK         0.2987 
    113 H113       32.0420  -49.6739  -56.2736 H         1 UNK         0.0785 
    114 H114       33.9954  -48.0954  -56.6588 H         1 UNK         0.0798 
    115 H115       32.4939  -47.5720  -57.4023 H         1 UNK         0.0798 
    116 H116       33.0394  -46.8053  -55.9241 H         1 UNK         0.0798 
    117 H117       33.9158  -48.8450  -54.3901 H         1 UNK         0.3079 
    118 H118       33.1354  -51.2711  -51.8471 H         1 UNK         0.0794 
    119 H119       35.4666  -51.8830  -52.4458 H         1 UNK         0.0786 
    120 H120       35.3377  -50.9984  -53.9644 H         1 UNK         0.0786 
    121 H121       34.3461  -52.4238  -53.6855 H         1 UNK         0.0786 
    122 H122       34.9283  -48.9758  -52.5157 H         1 UNK         0.3032 
    123 H123       33.7483  -47.0842  -49.8043 H         1 UNK         0.1094 
    124 H124       36.4932  -48.4572  -49.8907 H         1 UNK         0.0794 
    125 H125       36.0982  -46.9853  -49.0007 H         1 UNK         0.0794 
    126 H126       35.3691  -48.5138  -48.5402 H         1 UNK         0.0794 
    127 H127       35.9675  -46.6559  -51.5347 H         1 UNK         0.3016 
@<TRIPOS>BOND
     1    1    2 1    
     2    1   67 1    
     3    1   68 1    
     4    1   69 1    
     5    2    3 2    
     6    2    4 am   BACKBONE|DICT|INTERRES
     7    4    5 1    
     8    4   70 1    
     9    5    6 1    
    10    5   65 1    
    11    5   71 1    
    12    6    7 1    
    13    6   72 1    
    14    6   73 1    
    15    7    8 1    
    16    8    9 1    
    17    8   74 1    
    18    8   75 1    
    19    9   10 ar   
    20    9   14 ar   
    21   10   11 ar   
    22   10   76 1    
    23   11   12 ar   
    24   11   48 1    
    25   12   13 ar   
    26   12   77 1    
    27   13   14 ar   
    28   13   15 1    
    29   14   78 1    
    30   15   16 1    
    31   15   79 1    
    32   15   80 1    
    33   16   17 1    
    34   17   18 1    
    35   17   81 1    
    36   17   82 1    
    37   18   19 1    
    38   18   22 1    
    39   18   83 1    
    40   19   20 am   BACKBONE|DICT|INTERRES
    41   19   21 2    
    42   20   84 1    
    43   20   85 1    
    44   22   23 am   BACKBONE|DICT|INTERRES
    45   22   86 1    
    46   23   24 2    
    47   23   25 1    
    48   25   26 1    
    49   25   27 1    
    50   25   87 1    
    51   26   88 1    
    52   26   89 1    
    53   26   90 1    
    54   27   28 am   BACKBONE|DICT|INTERRES
    55   27   91 1    
    56   28   29 2    
    57   28   30 1    
    58   30   31 1    
    59   30   32 1    
    60   30   92 1    
    61   31   93 1    
    62   31   94 1    
    63   31   95 1    
    64   32   33 am   BACKBONE|DICT|INTERRES
    65   32   96 1    
    66   33   34 2    
    67   33   35 1    
    68   35   36 1    
    69   35   37 1    
    70   35   97 1    
    71   36   98 1    
    72   36   99 1    
    73   36  100 1    
    74   37   38 am   BACKBONE|DICT|INTERRES
    75   37  101 1    
    76   38   39 2    
    77   38   40 1    
    78   40   41 1    
    79   40   42 1    
    80   40  102 1    
    81   41  103 1    
    82   41  104 1    
    83   41  105 1    
    84   42   43 am   BACKBONE|DICT|INTERRES
    85   42  106 1    
    86   43   44 2    
    87   43   45 1    
    88   45   46 1    
    89   45   49 1    
    90   45  107 1    
    91   46   47 1    
    92   46  108 1    
    93   46  109 1    
    94   47   48 1    
    95   48  110 1    
    96   48  111 1    
    97   49   50 am   BACKBONE|DICT|INTERRES
    98   49  112 1    
    99   50   51 2    
   100   50   52 1    
   101   52   53 1    
   102   52   54 1    
   103   52  113 1    
   104   53  114 1    
   105   53  115 1    
   106   53  116 1    
   107   54   55 am   BACKBONE|DICT|INTERRES
   108   54  117 1    
   109   55   56 2    
   110   55   57 1    
   111   57   58 1    
   112   57   59 1    
   113   57  118 1    
   114   58  119 1    
   115   58  120 1    
   116   58  121 1    
   117   59   60 am   BACKBONE|DICT|INTERRES
   118   59  122 1    
   119   60   61 2    
   120   60   62 1    
   121   62   63 1    
   122   62   64 1    
   123   62  123 1    
   124   63  124 1    
   125   63  125 1    
   126   63  126 1    
   127   64   65 am   BACKBONE|DICT|INTERRES
   128   64  127 1    
   129   65   66 2    
@<TRIPOS>SUBSTRUCTURE
     1 UNK         1 GROUP             0       ****    0 ROOT    
