@<TRIPOS>MOLECULE
3R134
127   129    1
SMALL
USER_CHARGES


@<TRIPOS>ATOM
      1 CA         33.8160  -46.7160  -57.6434 C.3       0 UNK        -0.1968 
      2 C          34.3130  -45.8389  -56.5034 C.2       0 UNK         0.4852 
      3 O          35.4025  -45.2751  -56.6073 O.2       0 UNK        -0.5359 
      4 N          33.5158  -45.7450  -55.4307 N.am      1 UNK        -0.4300 
      5 CA         33.7707  -45.0830  -54.1477 C.3       1 UNK         0.0863 
      6 C6         34.1903  -43.5900  -54.2173 C.3       11 UNK        -0.0953 
      7 S7         32.9883  -42.5316  -55.0898 S.3       11 UNK        -0.2369 
      8 C8         31.9433  -41.9356  -53.7217 C.3       11 UNK         0.0226 
      9 C9         30.9019  -42.9721  -53.3287 C.ar      11 UNK        -0.0699 
     10 C10        31.0790  -43.7726  -52.1955 C.ar      11 UNK        -0.0804 
     11 C11        30.1373  -44.7538  -51.8671 C.ar      11 UNK        -0.0871 
     12 C12        28.9901  -44.8951  -52.6528 C.ar      11 UNK        -0.1008 
     13 C13        28.8115  -44.1111  -53.7951 C.ar      11 UNK        -0.0735 
     14 C14        29.7654  -43.1448  -54.1227 C.ar      11 UNK        -0.0945 
     15 C15        27.6065  -44.3329  -54.6958 C.3       11 UNK         0.0169 
     16 S16        27.6613  -45.9555  -55.5206 S.3       11 UNK        -0.2669 
     17 C17        29.1757  -45.8457  -56.5371 C.3       11 UNK        -0.0850 
     18 CA         28.9202  -45.2538  -57.9535 C.3       10 UNK         0.0855 
     19 C          30.2354  -45.1059  -58.7752 C.2       10 UNK         0.5543 
     20 N          30.2422  -45.3778  -60.0745 N.am      10 UNK        -0.7343 
     21 O          31.2600  -44.6996  -58.2356 O.2       10 UNK        -0.5027 
     22 N          27.8066  -45.9013  -58.6714 N.am      10 UNK        -0.4495 
     23 C          27.6992  -47.1964  -58.9909 C.2       10 UNK         0.4903 
     24 O          28.5576  -48.0451  -58.7459 O.2       10 UNK        -0.4860 
     25 CA         26.3899  -47.5950  -59.6934 C.3       9 UNK         0.0227 
     26 CB         26.3412  -49.0822  -60.0894 C.3       9 UNK        -0.1964 
     27 N          25.2313  -47.2824  -58.8526 N.am      9 UNK        -0.4231 
     28 C          24.5938  -46.1023  -58.8319 C.2       9 UNK         0.5014 
     29 O          24.9541  -45.1313  -59.4996 O.2       9 UNK        -0.5270 
     30 CA         23.3525  -45.9649  -57.9339 C.3       8 UNK         0.0284 
     31 CB         22.0737  -46.1707  -58.7625 C.3       8 UNK        -0.1977 
     32 N          23.3570  -46.9159  -56.8225 N.am      8 UNK        -0.4342 
     33 C          23.8345  -46.6612  -55.5987 C.2       8 UNK         0.5039 
     34 O          24.2538  -45.5610  -55.2396 O.2       8 UNK        -0.5547 
     35 CA         23.8192  -47.8256  -54.5914 C.3       7 UNK         0.0281 
     36 CB         22.5500  -48.6998  -54.6997 C.3       7 UNK        -0.1963 
     37 N          25.0282  -48.6558  -54.6487 N.am      7 UNK        -0.4444 
     38 C          25.5215  -49.3380  -55.6906 C.2       7 UNK         0.5104 
     39 O          25.0254  -49.3204  -56.8194 O.2       7 UNK        -0.5100 
     40 CA         26.7607  -50.2137  -55.4060 C.3       6 UNK         0.0396 
     41 CB         27.2464  -50.9842  -56.6472 C.3       6 UNK        -0.1801 
     42 N          27.8970  -49.4738  -54.8512 N.am      6 UNK        -0.4747 
     43 C          28.0230  -49.0295  -53.5921 C.2       6 UNK         0.5012 
     44 O          27.1248  -49.1243  -52.7533 O.2       6 UNK        -0.5003 
     45 CA         29.3954  -48.4348  -53.2101 C.3       5 UNK         0.0782 
     46 C46        29.5451  -48.2123  -51.6794 C.3       11 UNK        -0.0868 
     47 S47        31.0523  -47.2864  -51.2204 S.3       11 UNK        -0.2515 
     48 C48        30.3742  -45.6790  -50.6831 C.3       11 UNK         0.0199 
     49 N          30.4284  -49.3227  -53.7515 N.am      5 UNK        -0.4607 
     50 C          31.4358  -48.9465  -54.5410 C.2       4 UNK         0.5031 
     51 O          31.6681  -47.7808  -54.8665 O.2       4 UNK        -0.5119 
     52 CA         32.3323  -50.0637  -55.0786 C.3       4 UNK         0.0263 
     53 CB         32.1052  -50.2846  -56.5850 C.3       4 UNK        -0.1967 
     54 N          33.7120  -49.6830  -54.8118 N.am      4 UNK        -0.4237 
     55 C          34.7477  -50.5222  -54.6868 C.2       3 UNK         0.4908 
     56 O          34.6864  -51.7312  -54.9125 O.2       3 UNK        -0.5102 
     57 CA         36.0727  -49.9113  -54.1933 C.3       3 UNK         0.0241 
     58 CB         36.9257  -49.4414  -55.3827 C.3       3 UNK        -0.1971 
     59 N          35.8598  -48.7875  -53.2777 N.am      3 UNK        -0.4139 
     60 C          35.3156  -48.8716  -52.0562 C.2       2 UNK         0.5016 
     61 O          35.0776  -49.9368  -51.4868 O.2       2 UNK        -0.5319 
     62 CA         34.9097  -47.5502  -51.3778 C.3       2 UNK         0.0286 
     63 CB         36.0956  -46.9056  -50.6334 C.3       2 UNK        -0.1963 
     64 N          34.2382  -46.6019  -52.2851 N.am      2 UNK        -0.4790 
     65 C          34.7583  -45.9160  -53.3141 C.2       1 UNK         0.5024 
     66 O          35.9475  -45.9667  -53.6321 O.2       1 UNK        -0.4888 
     67 H67        33.8703  -46.1721  -58.5860 H         1 UNK         0.0892 
     68 H68        34.4295  -47.6127  -57.7264 H         1 UNK         0.0892 
     69 H69        32.7799  -47.0206  -57.4953 H         1 UNK         0.0892 
     70 H70        32.6666  -46.3072  -55.4235 H         1 UNK         0.3107 
     71 H71        32.8101  -45.1267  -53.6389 H         1 UNK         0.0773 
     72 H72        34.3383  -43.1928  -53.2117 H         1 UNK         0.0680 
     73 H73        35.1538  -43.4829  -54.7176 H         1 UNK         0.0680 
     74 H74        31.4380  -41.0233  -54.0417 H         1 UNK         0.0650 
     75 H75        32.5621  -41.6552  -52.8681 H         1 UNK         0.0650 
     76 H76        31.9665  -43.6531  -51.5890 H         1 UNK         0.1397 
     77 H77        28.2517  -45.6441  -52.4042 H         1 UNK         0.1363 
     78 H78        29.6387  -42.5405  -55.0107 H         1 UNK         0.1355 
     79 H79        26.6949  -44.2731  -54.0994 H         1 UNK         0.0707 
     80 H80        27.5306  -43.5509  -55.4527 H         1 UNK         0.0707 
     81 H81        29.5977  -46.8484  -56.6187 H         1 UNK         0.1034 
     82 H82        29.9285  -45.2632  -56.0043 H         1 UNK         0.1034 
     83 H83        28.5852  -44.2270  -57.8043 H         1 UNK         0.0482 
     84 H84        29.4052  -45.7015  -60.5311 H         1 UNK         0.3460 
     85 H85        31.0947  -45.2625  -60.5988 H         1 UNK         0.3460 
     86 H86        27.0329  -45.2966  -58.9212 H         1 UNK         0.2989 
     87 H87        26.3350  -47.0160  -60.6177 H         1 UNK         0.0559 
     88 H88        26.3373  -49.7351  -59.2178 H         1 UNK         0.0848 
     89 H89        27.2022  -49.3553  -60.7008 H         1 UNK         0.0848 
     90 H90        25.4479  -49.3049  -60.6728 H         1 UNK         0.0848 
     91 H91        24.9593  -48.0042  -58.1893 H         1 UNK         0.3144 
     92 H92        23.3404  -44.9446  -57.5443 H         1 UNK         0.0727 
     93 H93        21.1803  -46.0206  -58.1559 H         1 UNK         0.0790 
     94 H94        22.0246  -47.1726  -59.1912 H         1 UNK         0.0790 
     95 H95        22.0258  -45.4599  -59.5888 H         1 UNK         0.0790 
     96 H96        23.0691  -47.8634  -57.0255 H         1 UNK         0.3215 
     97 H97        23.8127  -47.3697  -53.5999 H         1 UNK         0.0863 
     98 H98        22.5235  -49.2909  -55.6153 H         1 UNK         0.0808 
     99 H99        21.6484  -48.0859  -54.6777 H         1 UNK         0.0808 
    100 H100       22.4840  -49.3941  -53.8619 H         1 UNK         0.0808 
    101 H101       25.5643  -48.7162  -53.7864 H         1 UNK         0.3118 
    102 H102       26.4475  -50.9560  -54.6689 H         1 UNK         0.0546 
    103 H103       28.0215  -51.7049  -56.3866 H         1 UNK         0.0828 
    104 H104       27.6579  -50.3120  -57.3998 H         1 UNK         0.0828 
    105 H105       26.4331  -51.5435  -57.1118 H         1 UNK         0.0828 
    106 H106       28.6655  -49.3100  -55.4855 H         1 UNK         0.3005 
    107 H107       29.4499  -47.4618  -53.7020 H         1 UNK         0.1257 
    108 H108       29.5697  -49.1724  -51.1612 H         1 UNK         0.0775 
    109 H109       28.6787  -47.6856  -51.2771 H         1 UNK         0.0775 
    110 H110       29.4516  -45.8211  -50.1186 H         1 UNK         0.0840 
    111 H111       31.0800  -45.2214  -49.9881 H         1 UNK         0.0840 
    112 H112       30.3053  -50.3044  -53.5456 H         1 UNK         0.2987 
    113 H113       32.1113  -50.9902  -54.5436 H         1 UNK         0.0785 
    114 H114       32.7279  -51.0940  -56.9663 H         1 UNK         0.0798 
    115 H115       31.0673  -50.5511  -56.7888 H         1 UNK         0.0798 
    116 H116       32.3313  -49.3893  -57.1639 H         1 UNK         0.0798 
    117 H117       33.8422  -48.7063  -54.5884 H         1 UNK         0.3079 
    118 H118       36.6205  -50.6888  -53.6566 H         1 UNK         0.0794 
    119 H119       37.8971  -49.0733  -55.0520 H         1 UNK         0.0786 
    120 H120       36.4371  -48.6416  -55.9410 H         1 UNK         0.0786 
    121 H121       37.1104  -50.2610  -56.0787 H         1 UNK         0.0786 
    122 H122       36.0531  -47.8532  -53.6299 H         1 UNK         0.3032 
    123 H123       34.1625  -47.8112  -50.6258 H         1 UNK         0.1094 
    124 H124       36.9195  -46.6573  -51.3026 H         1 UNK         0.0794 
    125 H125       35.7922  -45.9928  -50.1208 H         1 UNK         0.0794 
    126 H126       36.4911  -47.5851  -49.8774 H         1 UNK         0.0794 
    127 H127       33.2387  -46.5305  -52.1341 H         1 UNK         0.3016 
@<TRIPOS>BOND
     1    1    2 1    
     2    1   67 1    
     3    1   68 1    
     4    1   69 1    
     5    2    3 2    
     6    2    4 am   BACKBONE|DICT|INTERRES
     7    4    5 1    
     8    4   70 1    
     9    5    6 1    
    10    5   65 1    
    11    5   71 1    
    12    6    7 1    
    13    6   72 1    
    14    6   73 1    
    15    7    8 1    
    16    8    9 1    
    17    8   74 1    
    18    8   75 1    
    19    9   10 ar   
    20    9   14 ar   
    21   10   11 ar   
    22   10   76 1    
    23   11   12 ar   
    24   11   48 1    
    25   12   13 ar   
    26   12   77 1    
    27   13   14 ar   
    28   13   15 1    
    29   14   78 1    
    30   15   16 1    
    31   15   79 1    
    32   15   80 1    
    33   16   17 1    
    34   17   18 1    
    35   17   81 1    
    36   17   82 1    
    37   18   19 1    
    38   18   22 1    
    39   18   83 1    
    40   19   20 am   BACKBONE|DICT|INTERRES
    41   19   21 2    
    42   20   84 1    
    43   20   85 1    
    44   22   23 am   BACKBONE|DICT|INTERRES
    45   22   86 1    
    46   23   24 2    
    47   23   25 1    
    48   25   26 1    
    49   25   27 1    
    50   25   87 1    
    51   26   88 1    
    52   26   89 1    
    53   26   90 1    
    54   27   28 am   BACKBONE|DICT|INTERRES
    55   27   91 1    
    56   28   29 2    
    57   28   30 1    
    58   30   31 1    
    59   30   32 1    
    60   30   92 1    
    61   31   93 1    
    62   31   94 1    
    63   31   95 1    
    64   32   33 am   BACKBONE|DICT|INTERRES
    65   32   96 1    
    66   33   34 2    
    67   33   35 1    
    68   35   36 1    
    69   35   37 1    
    70   35   97 1    
    71   36   98 1    
    72   36   99 1    
    73   36  100 1    
    74   37   38 am   BACKBONE|DICT|INTERRES
    75   37  101 1    
    76   38   39 2    
    77   38   40 1    
    78   40   41 1    
    79   40   42 1    
    80   40  102 1    
    81   41  103 1    
    82   41  104 1    
    83   41  105 1    
    84   42   43 am   BACKBONE|DICT|INTERRES
    85   42  106 1    
    86   43   44 2    
    87   43   45 1    
    88   45   46 1    
    89   45   49 1    
    90   45  107 1    
    91   46   47 1    
    92   46  108 1    
    93   46  109 1    
    94   47   48 1    
    95   48  110 1    
    96   48  111 1    
    97   49   50 am   BACKBONE|DICT|INTERRES
    98   49  112 1    
    99   50   51 2    
   100   50   52 1    
   101   52   53 1    
   102   52   54 1    
   103   52  113 1    
   104   53  114 1    
   105   53  115 1    
   106   53  116 1    
   107   54   55 am   BACKBONE|DICT|INTERRES
   108   54  117 1    
   109   55   56 2    
   110   55   57 1    
   111   57   58 1    
   112   57   59 1    
   113   57  118 1    
   114   58  119 1    
   115   58  120 1    
   116   58  121 1    
   117   59   60 am   BACKBONE|DICT|INTERRES
   118   59  122 1    
   119   60   61 2    
   120   60   62 1    
   121   62   63 1    
   122   62   64 1    
   123   62  123 1    
   124   63  124 1    
   125   63  125 1    
   126   63  126 1    
   127   64   65 am   BACKBONE|DICT|INTERRES
   128   64  127 1    
   129   65   66 2    
@<TRIPOS>SUBSTRUCTURE
     1 UNK         1 GROUP             0       ****    0 ROOT    
