@<TRIPOS>MOLECULE
3R134
127   129    1
SMALL
USER_CHARGES


@<TRIPOS>ATOM
      1 CA         28.8443  -50.5450  -52.0160 C.3       0 UNK        -0.1968 
      2 C          29.1380  -49.1004  -51.6415 C.2       0 UNK         0.4852 
      3 O          29.2302  -48.7785  -50.4563 O.2       0 UNK        -0.5359 
      4 N          29.2863  -48.2294  -52.6480 N.am      1 UNK        -0.4300 
      5 CA         29.6418  -46.8136  -52.4984 C.3       1 UNK         0.0863 
      6 C6         29.3501  -46.0563  -53.8159 C.3       11 UNK        -0.0953 
      7 S7         29.2682  -44.2438  -53.6347 S.3       11 UNK        -0.2369 
      8 C8         30.9017  -43.7191  -54.2485 C.3       11 UNK         0.0226 
      9 C9         31.0548  -43.9569  -55.7432 C.ar      11 UNK        -0.0699 
     10 C10        31.7765  -45.0583  -56.2127 C.ar      11 UNK        -0.0804 
     11 C11        31.9134  -45.2944  -57.5877 C.ar      11 UNK        -0.0871 
     12 C12        31.3205  -44.3991  -58.4849 C.ar      11 UNK        -0.1008 
     13 C13        30.6176  -43.2782  -58.0301 C.ar      11 UNK        -0.0735 
     14 C14        30.4876  -43.0646  -56.6553 C.ar      11 UNK        -0.0945 
     15 C15        30.0375  -42.2846  -59.0287 C.3       11 UNK         0.0169 
     16 S16        28.2169  -42.2654  -59.0160 S.3       11 UNK        -0.2669 
     17 C17        27.8700  -40.7734  -58.0139 C.3       11 UNK        -0.0850 
     18 CA         26.5418  -40.8474  -57.2172 C.3       10 UNK         0.0855 
     19 C          25.2975  -40.7330  -58.1497 C.2       10 UNK         0.5543 
     20 N          24.4645  -41.7585  -58.2873 N.am      10 UNK        -0.7343 
     21 O          25.0799  -39.6831  -58.7498 O.2       10 UNK        -0.5027 
     22 N          26.5257  -41.9936  -56.2969 N.am      10 UNK        -0.4495 
     23 C          25.6843  -42.1310  -55.2639 C.2       10 UNK         0.4903 
     24 O          24.9444  -41.2281  -54.8694 O.2       10 UNK        -0.4860 
     25 CA         25.6539  -43.5022  -54.5534 C.3       9 UNK         0.0227 
     26 CB         24.2533  -43.8365  -53.9984 C.3       9 UNK        -0.1964 
     27 N          26.1555  -44.6267  -55.3583 N.am      9 UNK        -0.4231 
     28 C          25.7109  -45.0402  -56.5561 C.2       9 UNK         0.5014 
     29 O          24.8276  -44.4741  -57.2017 O.2       9 UNK        -0.5270 
     30 CA         26.3799  -46.2973  -57.1331 C.3       8 UNK         0.0284 
     31 CB         27.7370  -45.9489  -57.7689 C.3       8 UNK        -0.1977 
     32 N          26.5729  -47.3558  -56.1403 N.am      8 UNK        -0.4342 
     33 C          25.6051  -48.0371  -55.5123 C.2       8 UNK         0.5039 
     34 O          24.4025  -47.8333  -55.6853 O.2       8 UNK        -0.5547 
     35 CA         26.0731  -49.1640  -54.5637 C.3       7 UNK         0.0281 
     36 CB         24.9020  -49.8839  -53.8695 C.3       7 UNK        -0.1963 
     37 N          26.8989  -50.1590  -55.2611 N.am      7 UNK        -0.4444 
     38 C          28.1668  -49.9682  -55.6437 C.2       7 UNK         0.5104 
     39 O          28.7979  -48.9450  -55.3566 O.2       7 UNK        -0.5100 
     40 CA         28.8129  -51.0661  -56.5113 C.3       6 UNK         0.0396 
     41 CB         28.0232  -51.2756  -57.8160 C.3       6 UNK        -0.1801 
     42 N          30.1856  -50.6963  -56.8589 N.am      6 UNK        -0.4747 
     43 C          31.2397  -50.8185  -56.0428 C.2       6 UNK         0.5012 
     44 O          31.2214  -51.4672  -54.9943 O.2       6 UNK        -0.5003 
     45 CA         32.4926  -50.0324  -56.4659 C.3       5 UNK         0.0782 
     46 C46        32.2736  -48.5140  -56.2335 C.3       11 UNK        -0.0868 
     47 S47        33.6116  -47.5087  -56.9605 S.3       11 UNK        -0.2515 
     48 C48        32.6952  -46.4807  -58.1641 C.3       11 UNK         0.0199 
     49 N          33.6638  -50.5152  -55.7290 N.am      5 UNK        -0.4607 
     50 C          34.7369  -51.0876  -56.2893 C.2       4 UNK         0.5031 
     51 O          34.8098  -51.3523  -57.4904 O.2       4 UNK        -0.5119 
     52 CA         35.9527  -51.3982  -55.3934 C.3       4 UNK         0.0263 
     53 CB         37.2288  -50.7568  -55.9688 C.3       4 UNK        -0.1967 
     54 N          35.7825  -50.9253  -54.0175 N.am      4 UNK        -0.4237 
     55 C          35.4960  -51.7018  -52.9651 C.2       3 UNK         0.4908 
     56 O          35.3736  -52.9258  -53.0275 O.2       3 UNK        -0.5102 
     57 CA         35.3116  -51.0007  -51.6035 C.3       3 UNK         0.0241 
     58 CB         36.6115  -51.0772  -50.7854 C.3       3 UNK        -0.1971 
     59 N          34.8641  -49.6008  -51.6665 N.am      3 UNK        -0.4139 
     60 C          33.7282  -49.1849  -52.2411 C.2       2 UNK         0.5016 
     61 O          32.9778  -49.9236  -52.8838 O.2       2 UNK        -0.5319 
     62 CA         33.3747  -47.6994  -52.1012 C.3       2 UNK         0.0286 
     63 CB         34.2482  -46.8191  -53.0128 C.3       2 UNK        -0.1963 
     64 N          31.9732  -47.5634  -52.4756 N.am      2 UNK        -0.4790 
     65 C          31.1091  -46.6407  -52.0433 C.2       1 UNK         0.5024 
     66 O          31.4222  -45.7072  -51.3036 O.2       1 UNK        -0.4888 
     67 H67        29.2296  -51.2218  -51.2537 H         1 UNK         0.0892 
     68 H68        27.7698  -50.7035  -52.1034 H         1 UNK         0.0892 
     69 H69        29.3145  -50.8119  -52.9623 H         1 UNK         0.0892 
     70 H70        29.1888  -48.5528  -53.6088 H         1 UNK         0.3107 
     71 H71        29.0050  -46.3978  -51.7143 H         1 UNK         0.0773 
     72 H72        30.0533  -46.3443  -54.5966 H         1 UNK         0.0680 
     73 H73        28.3721  -46.3589  -54.1879 H         1 UNK         0.0680 
     74 H74        31.6871  -44.2328  -53.6930 H         1 UNK         0.0650 
     75 H75        31.0285  -42.6567  -54.0363 H         1 UNK         0.0650 
     76 H76        32.2244  -45.7259  -55.4918 H         1 UNK         0.1397 
     77 H77        31.4244  -44.5670  -59.5484 H         1 UNK         0.1363 
     78 H78        29.9456  -42.2052  -56.2889 H         1 UNK         0.1355 
     79 H79        30.3634  -42.5320  -60.0401 H         1 UNK         0.0707 
     80 H80        30.4314  -41.2877  -58.8261 H         1 UNK         0.0707 
     81 H81        28.6900  -40.6039  -57.3163 H         1 UNK         0.1034 
     82 H82        27.8736  -39.9038  -58.6740 H         1 UNK         0.1034 
     83 H83        26.5097  -39.9521  -56.5931 H         1 UNK         0.0482 
     84 H84        24.6427  -42.6427  -57.8197 H         1 UNK         0.3460 
     85 H85        23.6630  -41.6646  -58.8898 H         1 UNK         0.3460 
     86 H86        27.0855  -42.7858  -56.5748 H         1 UNK         0.2989 
     87 H87        26.3301  -43.4118  -53.7027 H         1 UNK         0.0559 
     88 H88        23.9212  -43.0834  -53.2828 H         1 UNK         0.0848 
     89 H89        23.5070  -43.8831  -54.7923 H         1 UNK         0.0848 
     90 H90        24.2499  -44.7954  -53.4800 H         1 UNK         0.0848 
     91 H91        26.9140  -45.1465  -54.9414 H         1 UNK         0.3144 
     92 H92        25.7266  -46.6916  -57.9142 H         1 UNK         0.0727 
     93 H93        28.1954  -46.8221  -58.2334 H         1 UNK         0.0790 
     94 H94        28.4439  -45.5511  -57.0389 H         1 UNK         0.0790 
     95 H95        27.6188  -45.1966  -58.5495 H         1 UNK         0.0790 
     96 H96        27.5284  -47.6533  -55.9625 H         1 UNK         0.3215 
     97 H97        26.6716  -48.6913  -53.7827 H         1 UNK         0.0863 
     98 H98        24.2877  -49.1785  -53.3081 H         1 UNK         0.0808 
     99 H99        24.2507  -50.3829  -54.5882 H         1 UNK         0.0808 
    100 H100       25.2585  -50.6329  -53.1623 H         1 UNK         0.0808 
    101 H101       26.4297  -51.0068  -55.5467 H         1 UNK         0.3118 
    102 H102       28.8172  -51.9986  -55.9431 H         1 UNK         0.0546 
    103 H103       27.0166  -51.6464  -57.6206 H         1 UNK         0.0828 
    104 H104       28.5098  -52.0097  -58.4587 H         1 UNK         0.0828 
    105 H105       27.9245  -50.3491  -58.3836 H         1 UNK         0.0828 
    106 H106       30.2848  -50.1254  -57.6859 H         1 UNK         0.3005 
    107 H107       32.6245  -50.2020  -57.5370 H         1 UNK         0.1257 
    108 H108       32.2189  -48.2950  -55.1671 H         1 UNK         0.0775 
    109 H109       31.3207  -48.1817  -56.6504 H         1 UNK         0.0775 
    110 H110       33.4220  -46.0942  -58.8801 H         1 UNK         0.0840 
    111 H111       32.0166  -47.1162  -58.7348 H         1 UNK         0.0840 
    112 H112       33.6019  -50.4259  -54.7191 H         1 UNK         0.2987 
    113 H113       36.0860  -52.4819  -55.4066 H         1 UNK         0.0785 
    114 H114       37.4371  -51.1262  -56.9739 H         1 UNK         0.0798 
    115 H115       38.1001  -50.9888  -55.3559 H         1 UNK         0.0798 
    116 H116       37.1413  -49.6714  -56.0322 H         1 UNK         0.0798 
    117 H117       35.8546  -49.9289  -53.8708 H         1 UNK         0.3079 
    118 H118       34.5407  -51.5576  -51.0666 H         1 UNK         0.0794 
    119 H119       36.9567  -52.1083  -50.6942 H         1 UNK         0.0786 
    120 H120       36.4685  -50.6969  -49.7737 H         1 UNK         0.0786 
    121 H121       37.4153  -50.5050  -51.2506 H         1 UNK         0.0786 
    122 H122       35.4337  -48.9266  -51.1747 H         1 UNK         0.3032 
    123 H123       33.5034  -47.4052  -51.0570 H         1 UNK         0.1094 
    124 H124       33.9518  -45.7715  -52.9559 H         1 UNK         0.0794 
    125 H125       35.2982  -46.8722  -52.7236 H         1 UNK         0.0794 
    126 H126       34.1815  -47.1272  -54.0559 H         1 UNK         0.0794 
    127 H127       31.6238  -48.3601  -52.9957 H         1 UNK         0.3016 
@<TRIPOS>BOND
     1    1    2 1    
     2    1   67 1    
     3    1   68 1    
     4    1   69 1    
     5    2    3 2    
     6    2    4 am   BACKBONE|DICT|INTERRES
     7    4    5 1    
     8    4   70 1    
     9    5    6 1    
    10    5   65 1    
    11    5   71 1    
    12    6    7 1    
    13    6   72 1    
    14    6   73 1    
    15    7    8 1    
    16    8    9 1    
    17    8   74 1    
    18    8   75 1    
    19    9   10 ar   
    20    9   14 ar   
    21   10   11 ar   
    22   10   76 1    
    23   11   12 ar   
    24   11   48 1    
    25   12   13 ar   
    26   12   77 1    
    27   13   14 ar   
    28   13   15 1    
    29   14   78 1    
    30   15   16 1    
    31   15   79 1    
    32   15   80 1    
    33   16   17 1    
    34   17   18 1    
    35   17   81 1    
    36   17   82 1    
    37   18   19 1    
    38   18   22 1    
    39   18   83 1    
    40   19   20 am   BACKBONE|DICT|INTERRES
    41   19   21 2    
    42   20   84 1    
    43   20   85 1    
    44   22   23 am   BACKBONE|DICT|INTERRES
    45   22   86 1    
    46   23   24 2    
    47   23   25 1    
    48   25   26 1    
    49   25   27 1    
    50   25   87 1    
    51   26   88 1    
    52   26   89 1    
    53   26   90 1    
    54   27   28 am   BACKBONE|DICT|INTERRES
    55   27   91 1    
    56   28   29 2    
    57   28   30 1    
    58   30   31 1    
    59   30   32 1    
    60   30   92 1    
    61   31   93 1    
    62   31   94 1    
    63   31   95 1    
    64   32   33 am   BACKBONE|DICT|INTERRES
    65   32   96 1    
    66   33   34 2    
    67   33   35 1    
    68   35   36 1    
    69   35   37 1    
    70   35   97 1    
    71   36   98 1    
    72   36   99 1    
    73   36  100 1    
    74   37   38 am   BACKBONE|DICT|INTERRES
    75   37  101 1    
    76   38   39 2    
    77   38   40 1    
    78   40   41 1    
    79   40   42 1    
    80   40  102 1    
    81   41  103 1    
    82   41  104 1    
    83   41  105 1    
    84   42   43 am   BACKBONE|DICT|INTERRES
    85   42  106 1    
    86   43   44 2    
    87   43   45 1    
    88   45   46 1    
    89   45   49 1    
    90   45  107 1    
    91   46   47 1    
    92   46  108 1    
    93   46  109 1    
    94   47   48 1    
    95   48  110 1    
    96   48  111 1    
    97   49   50 am   BACKBONE|DICT|INTERRES
    98   49  112 1    
    99   50   51 2    
   100   50   52 1    
   101   52   53 1    
   102   52   54 1    
   103   52  113 1    
   104   53  114 1    
   105   53  115 1    
   106   53  116 1    
   107   54   55 am   BACKBONE|DICT|INTERRES
   108   54  117 1    
   109   55   56 2    
   110   55   57 1    
   111   57   58 1    
   112   57   59 1    
   113   57  118 1    
   114   58  119 1    
   115   58  120 1    
   116   58  121 1    
   117   59   60 am   BACKBONE|DICT|INTERRES
   118   59  122 1    
   119   60   61 2    
   120   60   62 1    
   121   62   63 1    
   122   62   64 1    
   123   62  123 1    
   124   63  124 1    
   125   63  125 1    
   126   63  126 1    
   127   64   65 am   BACKBONE|DICT|INTERRES
   128   64  127 1    
   129   65   66 2    
@<TRIPOS>SUBSTRUCTURE
     1 UNK         1 GROUP             0       ****    0 ROOT    
