@<TRIPOS>MOLECULE
3R134
127   129    1
SMALL
USER_CHARGES


@<TRIPOS>ATOM
      1 CA         35.0301  -47.5431  -50.4960 C.3       0 UNK        -0.1968 
      2 C          34.5525  -47.3385  -51.9254 C.2       0 UNK         0.4852 
      3 O          33.5922  -47.9831  -52.3440 O.2       0 UNK        -0.5359 
      4 N          35.2122  -46.4487  -52.6799 N.am      1 UNK        -0.4300 
      5 CA         34.9221  -46.1464  -54.0857 C.3       1 UNK         0.0863 
      6 C6         33.5118  -45.5150  -54.2755 C.3       11 UNK        -0.0953 
      7 S7         33.3930  -44.5230  -55.8016 S.3       11 UNK        -0.2369 
      8 C8         32.8206  -42.9192  -55.1566 C.3       11 UNK         0.0226 
      9 C9         31.3899  -43.0024  -54.6452 C.ar      11 UNK        -0.0699 
     10 C10        31.1209  -42.9957  -53.2720 C.ar      11 UNK        -0.0804 
     11 C11        29.8051  -43.0912  -52.8076 C.ar      11 UNK        -0.0871 
     12 C12        28.7566  -43.1782  -53.7270 C.ar      11 UNK        -0.1008 
     13 C13        29.0169  -43.2117  -55.0973 C.ar      11 UNK        -0.0735 
     14 C14        30.3327  -43.1069  -55.5532 C.ar      11 UNK        -0.0945 
     15 C15        27.8813  -43.4363  -56.0763 C.3       11 UNK         0.0169 
     16 S16        27.3070  -41.8912  -56.8448 S.3       11 UNK        -0.2669 
     17 C17        27.7822  -42.1557  -58.5886 C.3       11 UNK        -0.0850 
     18 CA         26.7056  -42.9315  -59.3975 C.3       10 UNK         0.0855 
     19 C          27.0150  -42.8757  -60.9133 C.2       10 UNK         0.5543 
     20 N          26.3621  -41.9870  -61.6489 N.am      10 UNK        -0.7343 
     21 O          27.8677  -43.6015  -61.4211 O.2       10 UNK        -0.5027 
     22 N          26.6196  -44.3320  -58.9670 N.am      10 UNK        -0.4495 
     23 C          25.6198  -44.8957  -58.2847 C.2       10 UNK         0.4903 
     24 O          24.5911  -44.3008  -57.9625 O.2       10 UNK        -0.4860 
     25 CA         25.7865  -46.3666  -57.8544 C.3       9 UNK         0.0227 
     26 CB         25.2261  -47.3215  -58.9255 C.3       9 UNK        -0.1964 
     27 N          27.1404  -46.7703  -57.4388 N.am      9 UNK        -0.4231 
     28 C          28.2580  -46.8797  -58.1752 C.2       9 UNK         0.5014 
     29 O          28.3496  -46.5218  -59.3496 O.2       9 UNK        -0.5270 
     30 CA         29.4795  -47.5191  -57.4903 C.3       8 UNK         0.0284 
     31 CB         30.2526  -46.4862  -56.6561 C.3       8 UNK        -0.1977 
     32 N          29.1158  -48.6578  -56.6448 N.am      8 UNK        -0.4342 
     33 C          28.5879  -49.8076  -57.0918 C.2       8 UNK         0.5039 
     34 O          28.4404  -50.0823  -58.2830 O.2       8 UNK        -0.5547 
     35 CA         28.1220  -50.8123  -56.0269 C.3       7 UNK         0.0281 
     36 CB         29.2912  -51.6880  -55.5469 C.3       7 UNK        -0.1963 
     37 N          27.4968  -50.1359  -54.8873 N.am      7 UNK        -0.4444 
     38 C          26.2505  -49.6401  -54.8974 C.2       7 UNK         0.5104 
     39 O          25.4711  -49.7647  -55.8417 O.2       7 UNK        -0.5100 
     40 CA         25.7911  -48.8684  -53.6464 C.3       6 UNK         0.0396 
     41 CB         25.0691  -49.8117  -52.6715 C.3       6 UNK        -0.1801 
     42 N          26.8837  -48.1902  -52.9434 N.am      6 UNK        -0.4747 
     43 C          27.5555  -47.1305  -53.4187 C.2       6 UNK         0.5012 
     44 O          27.3118  -46.5998  -54.5032 O.2       6 UNK        -0.5003 
     45 CA         28.7404  -46.6288  -52.5643 C.3       5 UNK         0.0782 
     46 C46        28.2528  -45.6663  -51.4534 C.3       11 UNK        -0.0868 
     47 S47        29.6446  -44.8110  -50.6360 S.3       11 UNK        -0.2515 
     48 C48        29.5141  -43.1233  -51.3144 C.3       11 UNK         0.0199 
     49 N          29.5291  -47.7372  -52.0068 N.am      5 UNK        -0.4607 
     50 C          30.1428  -48.6787  -52.7308 C.2       4 UNK         0.5031 
     51 O          30.1179  -48.7176  -53.9654 O.2       4 UNK        -0.5119 
     52 CA         30.8373  -49.8022  -51.9545 C.3       4 UNK         0.0263 
     53 CB         29.8148  -50.8234  -51.4225 C.3       4 UNK        -0.1967 
     54 N          31.7536  -50.4495  -52.8801 N.am      4 UNK        -0.4237 
     55 C          32.8482  -51.1538  -52.5750 C.2       3 UNK         0.4908 
     56 O          33.1776  -51.4723  -51.4321 O.2       3 UNK        -0.5102 
     57 CA         33.7369  -51.5402  -53.7634 C.3       3 UNK         0.0241 
     58 CB         33.1561  -52.7984  -54.4473 C.3       3 UNK        -0.1971 
     59 N          33.8344  -50.3938  -54.6759 N.am      3 UNK        -0.4139 
     60 C          34.4240  -50.3436  -55.8772 C.2       2 UNK         0.5016 
     61 O          35.0201  -51.2850  -56.4011 O.2       2 UNK        -0.5319 
     62 CA         34.3275  -49.0068  -56.6370 C.3       2 UNK         0.0286 
     63 CB         33.1106  -49.0224  -57.5777 C.3       2 UNK        -0.1963 
     64 N          34.2357  -47.8321  -55.7642 N.am      2 UNK        -0.4790 
     65 C          35.2160  -47.3844  -54.9672 C.2       1 UNK         0.5024 
     66 O          36.3286  -47.9117  -54.9028 O.2       1 UNK        -0.4888 
     67 H67        35.9073  -46.9383  -50.2673 H         1 UNK         0.0892 
     68 H68        34.2390  -47.2748  -49.7964 H         1 UNK         0.0892 
     69 H69        35.2866  -48.5899  -50.3350 H         1 UNK         0.0892 
     70 H70        36.0161  -45.9734  -52.2939 H         1 UNK         0.3107 
     71 H71        35.6626  -45.3978  -54.3719 H         1 UNK         0.0773 
     72 H72        32.7132  -46.2585  -54.2542 H         1 UNK         0.0680 
     73 H73        33.3053  -44.8598  -53.4290 H         1 UNK         0.0680 
     74 H74        32.8746  -42.1787  -55.9559 H         1 UNK         0.0650 
     75 H75        33.4992  -42.5760  -54.3741 H         1 UNK         0.0650 
     76 H76        31.9350  -42.9316  -52.5630 H         1 UNK         0.1397 
     77 H77        27.7360  -43.2541  -53.3790 H         1 UNK         0.1363 
     78 H78        30.5382  -43.1354  -56.6144 H         1 UNK         0.1355 
     79 H79        28.2165  -44.1424  -56.8340 H         1 UNK         0.0707 
     80 H80        27.0371  -43.9149  -55.5772 H         1 UNK         0.0707 
     81 H81        27.9391  -41.1669  -59.0242 H         1 UNK         0.1034 
     82 H82        28.7502  -42.6580  -58.6395 H         1 UNK         0.1034 
     83 H83        25.7420  -42.4424  -59.2405 H         1 UNK         0.0482 
     84 H84        25.6695  -41.3785  -61.2399 H         1 UNK         0.3460 
     85 H85        26.5613  -41.9261  -62.6354 H         1 UNK         0.3460 
     86 H86        27.3827  -44.9345  -59.2694 H         1 UNK         0.2989 
     87 H87        25.1743  -46.4929  -56.9599 H         1 UNK         0.0559 
     88 H88        24.1860  -47.0846  -59.1530 H         1 UNK         0.0848 
     89 H89        25.2561  -48.3568  -58.5847 H         1 UNK         0.0848 
     90 H90        25.7845  -47.2595  -59.8600 H         1 UNK         0.0848 
     91 H91        27.2238  -46.9885  -56.4493 H         1 UNK         0.3144 
     92 H92        30.1433  -47.8878  -58.2751 H         1 UNK         0.0727 
     93 H93        29.6481  -46.0850  -55.8428 H         1 UNK         0.0790 
     94 H94        30.5721  -45.6461  -57.2738 H         1 UNK         0.0790 
     95 H95        31.1481  -46.9221  -56.2153 H         1 UNK         0.0790 
     96 H96        29.2809  -48.5585  -55.6460 H         1 UNK         0.3215 
     97 H97        27.3801  -51.4682  -56.4886 H         1 UNK         0.0863 
     98 H98        28.9699  -52.4040  -54.7903 H         1 UNK         0.0808 
     99 H99        30.1004  -51.0936  -55.1267 H         1 UNK         0.0808 
    100 H100       29.7101  -52.2597  -56.3761 H         1 UNK         0.0808 
    101 H101       28.0833  -49.9459  -54.0884 H         1 UNK         0.3118 
    102 H102       25.0785  -48.1080  -53.9736 H         1 UNK         0.0546 
    103 H103       25.7339  -50.5881  -52.2906 H         1 UNK         0.0828 
    104 H104       24.2322  -50.3119  -53.1612 H         1 UNK         0.0828 
    105 H105       24.6632  -49.2675  -51.8187 H         1 UNK         0.0828 
    106 H106       27.1528  -48.5657  -52.0453 H         1 UNK         0.3005 
    107 H107       29.3949  -46.0729  -53.2406 H         1 UNK         0.1257 
    108 H108       27.6969  -46.2151  -50.6909 H         1 UNK         0.0775 
    109 H109       27.5537  -44.9269  -51.8450 H         1 UNK         0.0775 
    110 H110       28.5216  -42.7202  -51.1065 H         1 UNK         0.0840 
    111 H111       30.2183  -42.4766  -50.7887 H         1 UNK         0.0840 
    112 H112       29.6095  -47.7601  -51.0006 H         1 UNK         0.2987 
    113 H113       31.4044  -49.3647  -51.1299 H         1 UNK         0.0785 
    114 H114       29.1101  -50.3557  -50.7341 H         1 UNK         0.0798 
    115 H115       30.3081  -51.6285  -50.8778 H         1 UNK         0.0798 
    116 H116       29.2370  -51.2750  -52.2299 H         1 UNK         0.0798 
    117 H117       31.5676  -50.2078  -53.8450 H         1 UNK         0.3079 
    118 H118       34.7364  -51.7622  -53.3851 H         1 UNK         0.0794 
    119 H119       33.8523  -53.2267  -55.1674 H         1 UNK         0.0786 
    120 H120       32.2240  -52.5828  -54.9701 H         1 UNK         0.0786 
    121 H121       32.9463  -53.5801  -53.7156 H         1 UNK         0.0786 
    122 H122       33.4744  -49.5236  -54.3015 H         1 UNK         0.3032 
    123 H123       35.2320  -48.9080  -57.2417 H         1 UNK         0.1094 
    124 H124       32.1754  -49.1360  -57.0276 H         1 UNK         0.0794 
    125 H125       33.0472  -48.1059  -58.1647 H         1 UNK         0.0794 
    126 H126       33.1740  -49.8528  -58.2824 H         1 UNK         0.0794 
    127 H127       33.3670  -47.3173  -55.7777 H         1 UNK         0.3016 
@<TRIPOS>BOND
     1    1    2 1    
     2    1   67 1    
     3    1   68 1    
     4    1   69 1    
     5    2    3 2    
     6    2    4 am   BACKBONE|DICT|INTERRES
     7    4    5 1    
     8    4   70 1    
     9    5    6 1    
    10    5   65 1    
    11    5   71 1    
    12    6    7 1    
    13    6   72 1    
    14    6   73 1    
    15    7    8 1    
    16    8    9 1    
    17    8   74 1    
    18    8   75 1    
    19    9   10 ar   
    20    9   14 ar   
    21   10   11 ar   
    22   10   76 1    
    23   11   12 ar   
    24   11   48 1    
    25   12   13 ar   
    26   12   77 1    
    27   13   14 ar   
    28   13   15 1    
    29   14   78 1    
    30   15   16 1    
    31   15   79 1    
    32   15   80 1    
    33   16   17 1    
    34   17   18 1    
    35   17   81 1    
    36   17   82 1    
    37   18   19 1    
    38   18   22 1    
    39   18   83 1    
    40   19   20 am   BACKBONE|DICT|INTERRES
    41   19   21 2    
    42   20   84 1    
    43   20   85 1    
    44   22   23 am   BACKBONE|DICT|INTERRES
    45   22   86 1    
    46   23   24 2    
    47   23   25 1    
    48   25   26 1    
    49   25   27 1    
    50   25   87 1    
    51   26   88 1    
    52   26   89 1    
    53   26   90 1    
    54   27   28 am   BACKBONE|DICT|INTERRES
    55   27   91 1    
    56   28   29 2    
    57   28   30 1    
    58   30   31 1    
    59   30   32 1    
    60   30   92 1    
    61   31   93 1    
    62   31   94 1    
    63   31   95 1    
    64   32   33 am   BACKBONE|DICT|INTERRES
    65   32   96 1    
    66   33   34 2    
    67   33   35 1    
    68   35   36 1    
    69   35   37 1    
    70   35   97 1    
    71   36   98 1    
    72   36   99 1    
    73   36  100 1    
    74   37   38 am   BACKBONE|DICT|INTERRES
    75   37  101 1    
    76   38   39 2    
    77   38   40 1    
    78   40   41 1    
    79   40   42 1    
    80   40  102 1    
    81   41  103 1    
    82   41  104 1    
    83   41  105 1    
    84   42   43 am   BACKBONE|DICT|INTERRES
    85   42  106 1    
    86   43   44 2    
    87   43   45 1    
    88   45   46 1    
    89   45   49 1    
    90   45  107 1    
    91   46   47 1    
    92   46  108 1    
    93   46  109 1    
    94   47   48 1    
    95   48  110 1    
    96   48  111 1    
    97   49   50 am   BACKBONE|DICT|INTERRES
    98   49  112 1    
    99   50   51 2    
   100   50   52 1    
   101   52   53 1    
   102   52   54 1    
   103   52  113 1    
   104   53  114 1    
   105   53  115 1    
   106   53  116 1    
   107   54   55 am   BACKBONE|DICT|INTERRES
   108   54  117 1    
   109   55   56 2    
   110   55   57 1    
   111   57   58 1    
   112   57   59 1    
   113   57  118 1    
   114   58  119 1    
   115   58  120 1    
   116   58  121 1    
   117   59   60 am   BACKBONE|DICT|INTERRES
   118   59  122 1    
   119   60   61 2    
   120   60   62 1    
   121   62   63 1    
   122   62   64 1    
   123   62  123 1    
   124   63  124 1    
   125   63  125 1    
   126   63  126 1    
   127   64   65 am   BACKBONE|DICT|INTERRES
   128   64  127 1    
   129   65   66 2    
@<TRIPOS>SUBSTRUCTURE
     1 UNK         1 GROUP             0       ****    0 ROOT    
