@<TRIPOS>MOLECULE
3R134
127   129    1
SMALL
USER_CHARGES


@<TRIPOS>ATOM
      1 CA         33.2378  -49.5284  -57.6409 C.3       0 UNK        -0.1968 
      2 C          33.3599  -48.9802  -56.2277 C.2       0 UNK         0.4852 
      3 O          33.0468  -49.6950  -55.2758 O.2       0 UNK        -0.5359 
      4 N          33.8310  -47.7303  -56.0917 N.am      1 UNK        -0.4300 
      5 CA         33.9086  -46.9271  -54.8584 C.3       1 UNK         0.0863 
      6 C6         34.6764  -45.5939  -55.0737 C.3       11 UNK        -0.0953 
      7 S7         34.2381  -44.6959  -56.6006 S.3       11 UNK        -0.2369 
      8 C8         33.7106  -43.0706  -55.9687 C.3       11 UNK         0.0226 
      9 C9         32.2279  -43.0477  -55.6321 C.ar      11 UNK        -0.0699 
     10 C10        31.7873  -42.8320  -54.3225 C.ar      11 UNK        -0.0804 
     11 C11        30.4180  -42.7869  -54.0359 C.ar      11 UNK        -0.0871 
     12 C12        29.4906  -42.9673  -55.0679 C.ar      11 UNK        -0.1008 
     13 C13        29.9226  -43.2061  -56.3737 C.ar      11 UNK        -0.0735 
     14 C14        31.2903  -43.2273  -56.6514 C.ar      11 UNK        -0.0945 
     15 C15        28.9281  -43.5155  -57.4779 C.3       11 UNK         0.0169 
     16 S16        28.1515  -42.0321  -58.1906 S.3       11 UNK        -0.2669 
     17 C17        26.5733  -41.7826  -57.2961 C.3       11 UNK        -0.0850 
     18 CA         25.8217  -43.0229  -56.7323 C.3       10 UNK         0.0855 
     19 C          24.4893  -42.5615  -56.0681 C.2       10 UNK         0.5543 
     20 N          23.3269  -42.8544  -56.6382 N.am      10 UNK        -0.7343 
     21 O          24.5171  -41.9216  -55.0199 O.2       10 UNK        -0.5027 
     22 N          25.6952  -44.1202  -57.7143 N.am      10 UNK        -0.4495 
     23 C          25.2903  -45.3600  -57.4003 C.2       10 UNK         0.4903 
     24 O          24.8985  -45.6847  -56.2804 O.2       10 UNK        -0.4860 
     25 CA         25.3257  -46.4347  -58.4981 C.3       9 UNK         0.0227 
     26 CB         24.8820  -45.9299  -59.8900 C.3       9 UNK        -0.1964 
     27 N          26.6196  -47.1284  -58.5109 N.am      9 UNK        -0.4231 
     28 C          27.7968  -46.6859  -58.9832 C.2       9 UNK         0.5014 
     29 O          27.9245  -45.6393  -59.6175 O.2       9 UNK        -0.5270 
     30 CA         29.0451  -47.5553  -58.7194 C.3       8 UNK         0.0284 
     31 CB         30.2946  -46.7152  -58.3953 C.3       8 UNK        -0.1977 
     32 N          28.8271  -48.4881  -57.6158 N.am      8 UNK        -0.4342 
     33 C          28.7655  -49.8217  -57.7215 C.2       8 UNK         0.5039 
     34 O          28.9382  -50.4352  -58.7751 O.2       8 UNK        -0.5547 
     35 CA         28.4316  -50.6136  -56.4434 C.3       7 UNK         0.0281 
     36 CB         29.6894  -51.2986  -55.8827 C.3       7 UNK        -0.1963 
     37 N          27.8097  -49.7924  -55.3989 N.am      7 UNK        -0.4444 
     38 C          26.5714  -49.2813  -55.4745 C.2       7 UNK         0.5104 
     39 O          25.8208  -49.4585  -56.4343 O.2       7 UNK        -0.5100 
     40 CA         26.1026  -48.3937  -54.3080 C.3       6 UNK         0.0396 
     41 CB         25.3574  -49.2407  -53.2646 C.3       6 UNK        -0.1801 
     42 N          27.1783  -47.6508  -53.6448 N.am      6 UNK        -0.4747 
     43 C          27.9995  -46.7600  -54.2252 C.2       6 UNK         0.5012 
     44 O          27.9664  -46.4657  -55.4198 O.2       6 UNK        -0.5003 
     45 CA         29.1031  -46.1717  -53.3205 C.3       5 UNK         0.0782 
     46 C46        28.5489  -45.0052  -52.4676 C.3       11 UNK        -0.0868 
     47 S47        29.8868  -44.0831  -51.6382 S.3       11 UNK        -0.2515 
     48 C48        29.9400  -42.5437  -52.6115 C.3       11 UNK         0.0199 
     49 N          29.7151  -47.2148  -52.4842 N.am      5 UNK        -0.4607 
     50 C          30.3383  -48.2944  -52.9695 C.2       4 UNK         0.5031 
     51 O          30.5480  -48.4738  -54.1683 O.2       4 UNK        -0.5119 
     52 CA         30.6777  -49.3992  -51.9673 C.3       4 UNK         0.0263 
     53 CB         29.4102  -50.2350  -51.6794 C.3       4 UNK        -0.1967 
     54 N          31.7387  -50.2351  -52.5258 N.am      4 UNK        -0.4237 
     55 C          32.3743  -51.2259  -51.8861 C.2       3 UNK         0.4908 
     56 O          32.1294  -51.5744  -50.7304 O.2       3 UNK        -0.5102 
     57 CA         33.5036  -51.9244  -52.6530 C.3       3 UNK         0.0241 
     58 CB         32.9606  -52.7473  -53.8349 C.3       3 UNK        -0.1971 
     59 N          34.4682  -50.9320  -53.1227 N.am      3 UNK        -0.4139 
     60 C          35.4717  -50.4504  -52.3748 C.2       2 UNK         0.5016 
     61 O          35.7654  -50.8871  -51.2608 O.2       2 UNK        -0.5319 
     62 CA         36.2956  -49.2850  -52.9512 C.3       2 UNK         0.0286 
     63 CB         37.5914  -49.8083  -53.5920 C.3       2 UNK        -0.1963 
     64 N          35.5702  -48.4765  -53.9330 N.am      2 UNK        -0.4790 
     65 C          34.5386  -47.6642  -53.6565 C.2       1 UNK         0.5024 
     66 O          34.0915  -47.4828  -52.5237 O.2       1 UNK        -0.4888 
     67 H67        33.8471  -50.4252  -57.7485 H         1 UNK         0.0892 
     68 H68        32.2010  -49.7940  -57.8470 H         1 UNK         0.0892 
     69 H69        33.5589  -48.8052  -58.3902 H         1 UNK         0.0892 
     70 H70        34.0805  -47.2154  -56.9245 H         1 UNK         0.3107 
     71 H71        32.8781  -46.6886  -54.5866 H         1 UNK         0.0773 
     72 H72        34.5244  -44.9402  -54.2128 H         1 UNK         0.0680 
     73 H73        35.7524  -45.7741  -55.1248 H         1 UNK         0.0680 
     74 H74        33.9021  -42.3229  -56.7396 H         1 UNK         0.0650 
     75 H75        34.3206  -42.7828  -55.1112 H         1 UNK         0.0650 
     76 H76        32.5067  -42.6949  -53.5267 H         1 UNK         0.1397 
     77 H77        28.4323  -42.9412  -54.8549 H         1 UNK         0.1363 
     78 H78        31.6315  -43.4088  -57.6616 H         1 UNK         0.1355 
     79 H79        28.2054  -44.2448  -57.1213 H         1 UNK         0.0707 
     80 H80        29.4522  -44.0049  -58.2973 H         1 UNK         0.0707 
     81 H81        26.7825  -41.0850  -56.4824 H         1 UNK         0.1034 
     82 H82        25.9168  -41.2395  -57.9791 H         1 UNK         0.1034 
     83 H83        26.4204  -43.4213  -55.9122 H         1 UNK         0.0482 
     84 H84        22.4702  -42.5531  -56.2013 H         1 UNK         0.3460 
     85 H85        23.2999  -43.3838  -57.4946 H         1 UNK         0.3460 
     86 H86        26.0409  -43.9374  -58.6456 H         1 UNK         0.2989 
     87 H87        24.6007  -47.1945  -58.2011 H         1 UNK         0.0559 
     88 H88        23.8728  -45.5189  -59.8454 H         1 UNK         0.0848 
     89 H89        24.8648  -46.7443  -60.6142 H         1 UNK         0.0848 
     90 H90        25.5273  -45.1481  -60.2891 H         1 UNK         0.0848 
     91 H91        26.6284  -47.9974  -57.9908 H         1 UNK         0.3144 
     92 H92        29.2387  -48.0981  -59.6466 H         1 UNK         0.0727 
     93 H93        30.1748  -46.1606  -57.4638 H         1 UNK         0.0790 
     94 H94        30.5111  -45.9986  -59.1883 H         1 UNK         0.0790 
     95 H95        31.1756  -47.3474  -58.2886 H         1 UNK         0.0790 
     96 H96        28.6578  -48.0608  -56.7107 H         1 UNK         0.3215 
     97 H97        27.7191  -51.3929  -56.7228 H         1 UNK         0.0863 
     98 H98        29.4697  -51.8681  -54.9797 H         1 UNK         0.0808 
     99 H99        30.4716  -50.5783  -55.6454 H         1 UNK         0.0808 
    100 H100       30.1083  -51.9949  -56.6103 H         1 UNK         0.0808 
    101 H101       28.3911  -49.5434  -54.6110 H         1 UNK         0.3118 
    102 H102       25.4007  -47.6642  -54.7120 H         1 UNK         0.0546 
    103 H103       26.0131  -49.9748  -52.7947 H         1 UNK         0.0828 
    104 H104       24.5328  -49.7880  -53.7240 H         1 UNK         0.0828 
    105 H105       24.9296  -48.6182  -52.4786 H         1 UNK         0.0828 
    106 H106       27.3019  -47.8304  -52.6592 H         1 UNK         0.3005 
    107 H107       29.8779  -45.7819  -53.9860 H         1 UNK         0.1257 
    108 H108       27.9566  -44.3175  -53.0722 H         1 UNK         0.0775 
    109 H109       27.8674  -45.3796  -51.7015 H         1 UNK         0.0775 
    110 H110       28.9545  -42.0749  -52.6104 H         1 UNK         0.0840 
    111 H111       30.6087  -41.8379  -52.1164 H         1 UNK         0.0840 
    112 H112       29.5919  -47.1180  -51.4866 H         1 UNK         0.2987 
    113 H113       31.0430  -48.9401  -51.0466 H         1 UNK         0.0785 
    114 H114       28.5900  -49.6069  -51.3302 H         1 UNK         0.0798 
    115 H115       29.5822  -50.9797  -50.9029 H         1 UNK         0.0798 
    116 H116       29.0642  -50.7599  -52.5705 H         1 UNK         0.0798 
    117 H117       32.0107  -49.9896  -53.4768 H         1 UNK         0.3079 
    118 H118       34.0008  -52.6170  -51.9701 H         1 UNK         0.0794 
    119 H119       33.7660  -53.2596  -54.3612 H         1 UNK         0.0786 
    120 H120       32.4287  -52.1315  -54.5600 H         1 UNK         0.0786 
    121 H121       32.2637  -53.5106  -53.4867 H         1 UNK         0.0786 
    122 H122       34.2396  -50.4663  -53.9976 H         1 UNK         0.3032 
    123 H123       36.5639  -48.6364  -52.1139 H         1 UNK         0.1094 
    124 H124       37.3873  -50.4524  -54.4483 H         1 UNK         0.0794 
    125 H125       38.2271  -48.9894  -53.9294 H         1 UNK         0.0794 
    126 H126       38.1721  -50.3923  -52.8764 H         1 UNK         0.0794 
    127 H127       35.8569  -48.5646  -54.8975 H         1 UNK         0.3016 
@<TRIPOS>BOND
     1    1    2 1    
     2    1   67 1    
     3    1   68 1    
     4    1   69 1    
     5    2    3 2    
     6    2    4 am   BACKBONE|DICT|INTERRES
     7    4    5 1    
     8    4   70 1    
     9    5    6 1    
    10    5   65 1    
    11    5   71 1    
    12    6    7 1    
    13    6   72 1    
    14    6   73 1    
    15    7    8 1    
    16    8    9 1    
    17    8   74 1    
    18    8   75 1    
    19    9   10 ar   
    20    9   14 ar   
    21   10   11 ar   
    22   10   76 1    
    23   11   12 ar   
    24   11   48 1    
    25   12   13 ar   
    26   12   77 1    
    27   13   14 ar   
    28   13   15 1    
    29   14   78 1    
    30   15   16 1    
    31   15   79 1    
    32   15   80 1    
    33   16   17 1    
    34   17   18 1    
    35   17   81 1    
    36   17   82 1    
    37   18   19 1    
    38   18   22 1    
    39   18   83 1    
    40   19   20 am   BACKBONE|DICT|INTERRES
    41   19   21 2    
    42   20   84 1    
    43   20   85 1    
    44   22   23 am   BACKBONE|DICT|INTERRES
    45   22   86 1    
    46   23   24 2    
    47   23   25 1    
    48   25   26 1    
    49   25   27 1    
    50   25   87 1    
    51   26   88 1    
    52   26   89 1    
    53   26   90 1    
    54   27   28 am   BACKBONE|DICT|INTERRES
    55   27   91 1    
    56   28   29 2    
    57   28   30 1    
    58   30   31 1    
    59   30   32 1    
    60   30   92 1    
    61   31   93 1    
    62   31   94 1    
    63   31   95 1    
    64   32   33 am   BACKBONE|DICT|INTERRES
    65   32   96 1    
    66   33   34 2    
    67   33   35 1    
    68   35   36 1    
    69   35   37 1    
    70   35   97 1    
    71   36   98 1    
    72   36   99 1    
    73   36  100 1    
    74   37   38 am   BACKBONE|DICT|INTERRES
    75   37  101 1    
    76   38   39 2    
    77   38   40 1    
    78   40   41 1    
    79   40   42 1    
    80   40  102 1    
    81   41  103 1    
    82   41  104 1    
    83   41  105 1    
    84   42   43 am   BACKBONE|DICT|INTERRES
    85   42  106 1    
    86   43   44 2    
    87   43   45 1    
    88   45   46 1    
    89   45   49 1    
    90   45  107 1    
    91   46   47 1    
    92   46  108 1    
    93   46  109 1    
    94   47   48 1    
    95   48  110 1    
    96   48  111 1    
    97   49   50 am   BACKBONE|DICT|INTERRES
    98   49  112 1    
    99   50   51 2    
   100   50   52 1    
   101   52   53 1    
   102   52   54 1    
   103   52  113 1    
   104   53  114 1    
   105   53  115 1    
   106   53  116 1    
   107   54   55 am   BACKBONE|DICT|INTERRES
   108   54  117 1    
   109   55   56 2    
   110   55   57 1    
   111   57   58 1    
   112   57   59 1    
   113   57  118 1    
   114   58  119 1    
   115   58  120 1    
   116   58  121 1    
   117   59   60 am   BACKBONE|DICT|INTERRES
   118   59  122 1    
   119   60   61 2    
   120   60   62 1    
   121   62   63 1    
   122   62   64 1    
   123   62  123 1    
   124   63  124 1    
   125   63  125 1    
   126   63  126 1    
   127   64   65 am   BACKBONE|DICT|INTERRES
   128   64  127 1    
   129   65   66 2    
@<TRIPOS>SUBSTRUCTURE
     1 UNK         1 GROUP             0       ****    0 ROOT    
