@<TRIPOS>MOLECULE
3R134
127   129    1
SMALL
USER_CHARGES


@<TRIPOS>ATOM
      1 CA         33.9369  -51.2015  -56.6492 C.3       0 UNK        -0.1968 
      2 C          33.6556  -50.1838  -55.5550 C.2       0 UNK         0.4852 
      3 O          33.2601  -50.5663  -54.4535 O.2       0 UNK        -0.5359 
      4 N          33.8780  -48.8923  -55.8403 N.am      1 UNK        -0.4300 
      5 CA         33.6338  -47.7552  -54.9379 C.3       1 UNK         0.0863 
      6 C6         33.9311  -46.4029  -55.6220 C.3       11 UNK        -0.0953 
      7 S7         32.8522  -46.1003  -57.0593 S.3       11 UNK        -0.2369 
      8 C8         33.0570  -44.3024  -57.2547 C.3       11 UNK         0.0226 
      9 C9         31.8779  -43.5217  -56.6898 C.ar      11 UNK        -0.0699 
     10 C10        31.6795  -43.4172  -55.3090 C.ar      11 UNK        -0.0804 
     11 C11        30.6022  -42.6861  -54.7959 C.ar      11 UNK        -0.0871 
     12 C12        29.7372  -42.0292  -55.6779 C.ar      11 UNK        -0.1008 
     13 C13        29.9401  -42.1056  -57.0585 C.ar      11 UNK        -0.0735 
     14 C14        31.0008  -42.8659  -57.5575 C.ar      11 UNK        -0.0945 
     15 C15        29.0490  -41.3343  -58.0189 C.3       11 UNK         0.0169 
     16 S16        27.6073  -42.3103  -58.5388 S.3       11 UNK        -0.2669 
     17 C17        26.3628  -41.8820  -57.2734 C.3       11 UNK        -0.0850 
     18 CA         25.9286  -43.0703  -56.3748 C.3       10 UNK         0.0855 
     19 C          24.9015  -42.5562  -55.3233 C.2       10 UNK         0.5543 
     20 N          23.6036  -42.7569  -55.5157 N.am      10 UNK        -0.7343 
     21 O          25.2939  -41.9542  -54.3272 O.2       10 UNK        -0.5027 
     22 N          25.5151  -44.2375  -57.1775 N.am      10 UNK        -0.4495 
     23 C          25.0680  -45.4112  -56.7105 C.2       10 UNK         0.4903 
     24 O          24.8628  -45.6528  -55.5216 O.2       10 UNK        -0.4860 
     25 CA         24.8404  -46.5280  -57.7437 C.3       9 UNK         0.0227 
     26 CB         23.7893  -46.1515  -58.8087 C.3       9 UNK        -0.1964 
     27 N          26.1067  -46.9911  -58.3229 N.am      9 UNK        -0.4231 
     28 C          26.9371  -46.3358  -59.1497 C.2       9 UNK         0.5014 
     29 O          26.6287  -45.2980  -59.7355 O.2       9 UNK        -0.5270 
     30 CA         28.3581  -46.9058  -59.3341 C.3       8 UNK         0.0284 
     31 CB         29.4169  -45.7972  -59.1827 C.3       8 UNK        -0.1977 
     32 N          28.6466  -47.9496  -58.3485 N.am      8 UNK        -0.4342 
     33 C          28.8149  -49.2520  -58.6127 C.2       8 UNK         0.5039 
     34 O          28.8232  -49.7256  -59.7494 O.2       8 UNK        -0.5547 
     35 CA         28.9785  -50.1999  -57.4061 C.3       7 UNK         0.0281 
     36 CB         30.4680  -50.4323  -57.1174 C.3       7 UNK        -0.1963 
     37 N          28.3263  -49.7257  -56.1807 N.am      7 UNK        -0.4444 
     38 C          27.0121  -49.4839  -56.0533 C.2       7 UNK         0.5104 
     39 O          26.1892  -49.7193  -56.9375 O.2       7 UNK        -0.5100 
     40 CA         26.5332  -48.7908  -54.7636 C.3       6 UNK         0.0396 
     41 CB         26.0053  -49.8334  -53.7662 C.3       6 UNK        -0.1801 
     42 N          27.5472  -47.9654  -54.1006 N.am      6 UNK        -0.4747 
     43 C          28.2992  -47.0002  -54.6563 C.2       6 UNK         0.5012 
     44 O          28.1826  -46.6260  -55.8227 O.2       6 UNK        -0.5003 
     45 CA         29.4264  -46.4084  -53.7843 C.3       5 UNK         0.0782 
     46 C46        28.9910  -45.0364  -53.2158 C.3       11 UNK        -0.0868 
     47 S47        30.3835  -44.1689  -52.4191 S.3       11 UNK        -0.2515 
     48 C48        30.3881  -42.5648  -53.2900 C.3       11 UNK         0.0199 
     49 N          29.8744  -47.3239  -52.7188 N.am      5 UNK        -0.4607 
     50 C          30.3630  -48.5596  -52.8962 C.2       4 UNK         0.5031 
     51 O          30.4982  -49.0939  -53.9981 O.2       4 UNK        -0.5119 
     52 CA         30.6422  -49.3674  -51.6274 C.3       4 UNK         0.0263 
     53 CB         29.4224  -50.2512  -51.2947 C.3       4 UNK        -0.1967 
     54 N          31.8398  -50.1865  -51.8094 N.am      4 UNK        -0.4237 
     55 C          32.5113  -50.7773  -50.8099 C.2       3 UNK         0.4908 
     56 O          32.1730  -50.7192  -49.6267 O.2       3 UNK        -0.5102 
     57 CA         33.7939  -51.5350  -51.1774 C.3       3 UNK         0.0241 
     58 CB         33.4831  -52.8271  -51.9528 C.3       3 UNK        -0.1971 
     59 N          34.6783  -50.6728  -51.9583 N.am      3 UNK        -0.4139 
     60 C          35.5807  -49.8356  -51.4248 C.2       2 UNK         0.5016 
     61 O          35.8517  -49.7954  -50.2238 O.2       2 UNK        -0.5319 
     62 CA         36.3066  -48.8690  -52.3808 C.3       2 UNK         0.0286 
     63 CB         37.6690  -49.4464  -52.7972 C.3       2 UNK        -0.1963 
     64 N          35.5337  -48.5477  -53.5829 N.am      2 UNK        -0.4790 
     65 C          34.3896  -47.8468  -53.5944 C.2       1 UNK         0.5024 
     66 O          33.9126  -47.3063  -52.5964 O.2       1 UNK        -0.4888 
     67 H67        34.8349  -51.7698  -56.4092 H         1 UNK         0.0892 
     68 H68        33.1061  -51.9010  -56.7339 H         1 UNK         0.0892 
     69 H69        34.0794  -50.7266  -57.6197 H         1 UNK         0.0892 
     70 H70        34.1967  -48.6404  -56.7652 H         1 UNK         0.3107 
     71 H71        32.5724  -47.7712  -54.6937 H         1 UNK         0.0773 
     72 H72        33.7989  -45.5849  -54.9132 H         1 UNK         0.0680 
     73 H73        34.9709  -46.3563  -55.9511 H         1 UNK         0.0680 
     74 H74        33.1764  -44.0906  -58.3182 H         1 UNK         0.0650 
     75 H75        33.9807  -43.9694  -56.7796 H         1 UNK         0.0650 
     76 H76        32.3602  -43.9052  -54.6273 H         1 UNK         0.1397 
     77 H77        28.9151  -41.4422  -55.2918 H         1 UNK         0.1363 
     78 H78        31.1539  -42.9295  -58.6262 H         1 UNK         0.1355 
     79 H79        29.6191  -41.0678  -58.9103 H         1 UNK         0.0707 
     80 H80        28.7354  -40.3872  -57.5777 H         1 UNK         0.0707 
     81 H81        26.7402  -41.0639  -56.6574 H         1 UNK         0.1034 
     82 H82        25.4954  -41.4767  -57.7983 H         1 UNK         0.1034 
     83 H83        26.8057  -43.3960  -55.8123 H         1 UNK         0.0482 
     84 H84        22.9433  -42.4214  -54.8324 H         1 UNK         0.3460 
     85 H85        23.2816  -43.2592  -56.3272 H         1 UNK         0.3460 
     86 H86        25.7310  -44.1853  -58.1672 H         1 UNK         0.2989 
     87 H87        24.4435  -47.3856  -57.1982 H         1 UNK         0.0559 
     88 H88        22.8309  -45.9262  -58.3396 H         1 UNK         0.0848 
     89 H89        23.6227  -46.9732  -59.5050 H         1 UNK         0.0848 
     90 H90        24.0734  -45.2749  -59.3907 H         1 UNK         0.0848 
     91 H91        26.4430  -47.8638  -57.9333 H         1 UNK         0.3144 
     92 H92        28.4160  -47.3047  -60.3485 H         1 UNK         0.0727 
     93 H93        29.3646  -45.3260  -58.1996 H         1 UNK         0.0790 
     94 H94        29.2776  -45.0114  -59.9262 H         1 UNK         0.0790 
     95 H95        30.4258  -46.1892  -59.3111 H         1 UNK         0.0790 
     96 H96        28.6323  -47.6384  -57.3790 H         1 UNK         0.3215 
     97 H97        28.5233  -51.1555  -57.6743 H         1 UNK         0.0863 
     98 H98        30.6095  -51.1454  -56.3048 H         1 UNK         0.0808 
     99 H99        30.9686  -49.5042  -56.8374 H         1 UNK         0.0808 
    100 H100       30.9801  -50.8299  -57.9945 H         1 UNK         0.0808 
    101 H101       28.9392  -49.4958  -55.4046 H         1 UNK         0.3118 
    102 H102       25.7079  -48.1324  -55.0360 H         1 UNK         0.0546 
    103 H103       26.7954  -50.5048  -53.4271 H         1 UNK         0.0828 
    104 H104       25.2276  -50.4493  -54.2204 H         1 UNK         0.0828 
    105 H105       25.5660  -49.3589  -52.8886 H         1 UNK         0.0828 
    106 H106       27.7360  -48.1902  -53.1352 H         1 UNK         0.3005 
    107 H107       30.2754  -46.2499  -54.4541 H         1 UNK         0.1257 
    108 H108       28.5802  -44.4047  -54.0063 H         1 UNK         0.0775 
    109 H109       28.1912  -45.1566  -52.4827 H         1 UNK         0.0775 
    110 H110       29.4504  -42.0510  -53.0717 H         1 UNK         0.0840 
    111 H111       31.1814  -41.9428  -52.8736 H         1 UNK         0.0840 
    112 H112       29.7984  -46.9615  -51.7791 H         1 UNK         0.2987 
    113 H113       30.8225  -48.6723  -50.8043 H         1 UNK         0.0785 
    114 H114       28.5185  -49.6508  -51.1852 H         1 UNK         0.0798 
    115 H115       29.5585  -50.7924  -50.3586 H         1 UNK         0.0798 
    116 H116       29.2351  -50.9853  -52.0797 H         1 UNK         0.0798 
    117 H117       32.1748  -50.2680  -52.7682 H         1 UNK         0.3079 
    118 H118       34.2942  -51.8223  -50.2497 H         1 UNK         0.0794 
    119 H119       34.3963  -53.3703  -52.1960 H         1 UNK         0.0786 
    120 H120       32.9521  -52.6337  -52.8849 H         1 UNK         0.0786 
    121 H121       32.8582  -53.4939  -51.3574 H         1 UNK         0.0786 
    122 H122       34.4632  -50.5997  -52.9488 H         1 UNK         0.3032 
    123 H123       36.4788  -47.9401  -51.8321 H         1 UNK         0.1094 
    124 H124       37.5601  -50.3717  -53.3644 H         1 UNK         0.0794 
    125 H125       38.2302  -48.7397  -53.4090 H         1 UNK         0.0794 
    126 H126       38.2809  -49.6710  -51.9223 H         1 UNK         0.0794 
    127 H127       35.8532  -48.9499  -54.4524 H         1 UNK         0.3016 
@<TRIPOS>BOND
     1    1    2 1    
     2    1   67 1    
     3    1   68 1    
     4    1   69 1    
     5    2    3 2    
     6    2    4 am   BACKBONE|DICT|INTERRES
     7    4    5 1    
     8    4   70 1    
     9    5    6 1    
    10    5   65 1    
    11    5   71 1    
    12    6    7 1    
    13    6   72 1    
    14    6   73 1    
    15    7    8 1    
    16    8    9 1    
    17    8   74 1    
    18    8   75 1    
    19    9   10 ar   
    20    9   14 ar   
    21   10   11 ar   
    22   10   76 1    
    23   11   12 ar   
    24   11   48 1    
    25   12   13 ar   
    26   12   77 1    
    27   13   14 ar   
    28   13   15 1    
    29   14   78 1    
    30   15   16 1    
    31   15   79 1    
    32   15   80 1    
    33   16   17 1    
    34   17   18 1    
    35   17   81 1    
    36   17   82 1    
    37   18   19 1    
    38   18   22 1    
    39   18   83 1    
    40   19   20 am   BACKBONE|DICT|INTERRES
    41   19   21 2    
    42   20   84 1    
    43   20   85 1    
    44   22   23 am   BACKBONE|DICT|INTERRES
    45   22   86 1    
    46   23   24 2    
    47   23   25 1    
    48   25   26 1    
    49   25   27 1    
    50   25   87 1    
    51   26   88 1    
    52   26   89 1    
    53   26   90 1    
    54   27   28 am   BACKBONE|DICT|INTERRES
    55   27   91 1    
    56   28   29 2    
    57   28   30 1    
    58   30   31 1    
    59   30   32 1    
    60   30   92 1    
    61   31   93 1    
    62   31   94 1    
    63   31   95 1    
    64   32   33 am   BACKBONE|DICT|INTERRES
    65   32   96 1    
    66   33   34 2    
    67   33   35 1    
    68   35   36 1    
    69   35   37 1    
    70   35   97 1    
    71   36   98 1    
    72   36   99 1    
    73   36  100 1    
    74   37   38 am   BACKBONE|DICT|INTERRES
    75   37  101 1    
    76   38   39 2    
    77   38   40 1    
    78   40   41 1    
    79   40   42 1    
    80   40  102 1    
    81   41  103 1    
    82   41  104 1    
    83   41  105 1    
    84   42   43 am   BACKBONE|DICT|INTERRES
    85   42  106 1    
    86   43   44 2    
    87   43   45 1    
    88   45   46 1    
    89   45   49 1    
    90   45  107 1    
    91   46   47 1    
    92   46  108 1    
    93   46  109 1    
    94   47   48 1    
    95   48  110 1    
    96   48  111 1    
    97   49   50 am   BACKBONE|DICT|INTERRES
    98   49  112 1    
    99   50   51 2    
   100   50   52 1    
   101   52   53 1    
   102   52   54 1    
   103   52  113 1    
   104   53  114 1    
   105   53  115 1    
   106   53  116 1    
   107   54   55 am   BACKBONE|DICT|INTERRES
   108   54  117 1    
   109   55   56 2    
   110   55   57 1    
   111   57   58 1    
   112   57   59 1    
   113   57  118 1    
   114   58  119 1    
   115   58  120 1    
   116   58  121 1    
   117   59   60 am   BACKBONE|DICT|INTERRES
   118   59  122 1    
   119   60   61 2    
   120   60   62 1    
   121   62   63 1    
   122   62   64 1    
   123   62  123 1    
   124   63  124 1    
   125   63  125 1    
   126   63  126 1    
   127   64   65 am   BACKBONE|DICT|INTERRES
   128   64  127 1    
   129   65   66 2    
@<TRIPOS>SUBSTRUCTURE
     1 UNK         1 GROUP             0       ****    0 ROOT    
