@<TRIPOS>MOLECULE
3R134
127   129    1
SMALL
USER_CHARGES


@<TRIPOS>ATOM
      1 CA         33.3394  -45.8657  -57.8834 C.3       0 UNK        -0.1968 
      2 C          33.4312  -46.3107  -56.4321 C.2       0 UNK         0.4852 
      3 O          32.9545  -47.3943  -56.0953 O.2       0 UNK        -0.5359 
      4 N          34.0588  -45.4939  -55.5725 N.am      1 UNK        -0.4300 
      5 CA         34.1616  -45.6990  -54.1193 C.3       1 UNK         0.0863 
      6 C6         34.8979  -44.5224  -53.4252 C.3       11 UNK        -0.0953 
      7 S7         34.1685  -44.1164  -51.8036 S.3       11 UNK        -0.2369 
      8 C8         33.3866  -42.5063  -52.1379 C.3       11 UNK         0.0226 
      9 C9         32.0860  -42.6430  -52.9186 C.ar      11 UNK        -0.0699 
     10 C10        30.8690  -42.7430  -52.2387 C.ar      11 UNK        -0.0804 
     11 C11        29.6643  -42.8015  -52.9451 C.ar      11 UNK        -0.0871 
     12 C12        29.6866  -42.7814  -54.3427 C.ar      11 UNK        -0.1008 
     13 C13        30.8972  -42.7030  -55.0411 C.ar      11 UNK        -0.0735 
     14 C14        32.0909  -42.6214  -54.3170 C.ar      11 UNK        -0.0945 
     15 C15        30.9477  -42.6516  -56.5679 C.3       11 UNK         0.0169 
     16 S16        29.7630  -43.7639  -57.3976 S.3       11 UNK        -0.2669 
     17 C17        28.3952  -42.6093  -57.7837 C.3       11 UNK        -0.0850 
     18 CA         27.2468  -43.2543  -58.6035 C.3       10 UNK         0.0855 
     19 C          27.6360  -43.4564  -60.0995 C.2       10 UNK         0.5543 
     20 N          27.6652  -44.6720  -60.6331 N.am      10 UNK        -0.7343 
     21 O          27.9030  -42.4798  -60.7958 O.2       10 UNK        -0.5027 
     22 N          26.7132  -44.4451  -57.9277 N.am      10 UNK        -0.4495 
     23 C          25.5177  -45.0004  -58.1602 C.2       10 UNK         0.4903 
     24 O          24.6561  -44.4876  -58.8765 O.2       10 UNK        -0.4860 
     25 CA         25.2480  -46.3624  -57.4841 C.3       9 UNK         0.0227 
     26 CB         24.1864  -47.1953  -58.2323 C.3       9 UNK        -0.1964 
     27 N          26.4585  -47.1660  -57.2581 N.am      9 UNK        -0.4231 
     28 C          27.3494  -47.5696  -58.1789 C.2       9 UNK         0.5014 
     29 O          27.2788  -47.2892  -59.3763 O.2       9 UNK        -0.5270 
     30 CA         28.5371  -48.4067  -57.6796 C.3       8 UNK         0.0284 
     31 CB         29.6454  -47.4927  -57.1375 C.3       8 UNK        -0.1977 
     32 N          28.1718  -49.3881  -56.6573 N.am      8 UNK        -0.4342 
     33 C          27.3885  -50.4557  -56.8703 C.2       8 UNK         0.5039 
     34 O          26.8772  -50.7292  -57.9569 O.2       8 UNK        -0.5547 
     35 CA         27.1373  -51.3823  -55.6730 C.3       7 UNK         0.0281 
     36 CB         28.3196  -52.3421  -55.4796 C.3       7 UNK        -0.1963 
     37 N          26.9208  -50.6151  -54.4465 N.am      7 UNK        -0.4444 
     38 C          25.7169  -50.2077  -54.0229 C.2       7 UNK         0.5104 
     39 O          24.6584  -50.4937  -54.5836 O.2       7 UNK        -0.5100 
     40 CA         25.6755  -49.3303  -52.7581 C.3       6 UNK         0.0396 
     41 CB         25.4587  -50.2010  -51.5103 C.3       6 UNK        -0.1801 
     42 N          26.8659  -48.4977  -52.5643 N.am      6 UNK        -0.4747 
     43 C          27.2587  -47.5162  -53.3900 C.2       6 UNK         0.5012 
     44 O          26.6843  -47.2329  -54.4414 O.2       6 UNK        -0.5003 
     45 CA         28.5433  -46.7572  -52.9949 C.3       5 UNK         0.0782 
     46 C46        28.2447  -45.6521  -51.9504 C.3       11 UNK        -0.0868 
     47 S47        27.2968  -44.2559  -52.6447 S.3       11 UNK        -0.2515 
     48 C48        28.3366  -42.8289  -52.1978 C.3       11 UNK         0.0199 
     49 N          29.6209  -47.6402  -52.5276 N.am      5 UNK        -0.4607 
     50 C          30.1125  -48.7080  -53.1711 C.2       4 UNK         0.5031 
     51 O          29.6393  -49.1602  -54.2165 O.2       4 UNK        -0.5119 
     52 CA         31.3164  -49.3855  -52.4997 C.3       4 UNK         0.0263 
     53 CB         30.8738  -50.5155  -51.5484 C.3       4 UNK        -0.1967 
     54 N          32.3102  -49.8150  -53.4895 N.am      4 UNK        -0.4237 
     55 C          32.3102  -50.8904  -54.2938 C.2       3 UNK         0.4908 
     56 O          31.5303  -51.8368  -54.1953 O.2       3 UNK        -0.5102 
     57 CA         33.3692  -50.9317  -55.4115 C.3       3 UNK         0.0241 
     58 CB         32.7007  -50.7760  -56.7887 C.3       3 UNK        -0.1971 
     59 N          34.3953  -49.8962  -55.2569 N.am      3 UNK        -0.4139 
     60 C          35.5095  -50.0451  -54.5248 C.2       2 UNK         0.5016 
     61 O          35.8233  -51.0978  -53.9678 O.2       2 UNK        -0.5319 
     62 CA         36.4303  -48.8196  -54.3665 C.3       2 UNK         0.0286 
     63 CB         37.6022  -48.8983  -55.3583 C.3       2 UNK        -0.1963 
     64 N          35.7521  -47.5301  -54.5295 N.am      2 UNK        -0.4790 
     65 C          34.7908  -47.0534  -53.7237 C.2       1 UNK         0.5024 
     66 O          34.3695  -47.6571  -52.7372 O.2       1 UNK        -0.4888 
     67 H67        32.2965  -45.7135  -58.1598 H         1 UNK         0.0892 
     68 H68        33.7577  -46.6301  -58.5376 H         1 UNK         0.0892 
     69 H69        33.8765  -44.9343  -58.0608 H         1 UNK         0.0892 
     70 H70        34.4599  -44.6357  -55.9217 H         1 UNK         0.3107 
     71 H71        33.1276  -45.7223  -53.7665 H         1 UNK         0.0773 
     72 H72        35.9607  -44.7323  -53.2867 H         1 UNK         0.0680 
     73 H73        34.8751  -43.6274  -54.0463 H         1 UNK         0.0680 
     74 H74        33.1912  -42.0148  -51.1836 H         1 UNK         0.0650 
     75 H75        34.0847  -41.8570  -52.6684 H         1 UNK         0.0650 
     76 H76        30.8611  -42.7471  -51.1571 H         1 UNK         0.1397 
     77 H77        28.7505  -42.8240  -54.8776 H         1 UNK         0.1363 
     78 H78        33.0280  -42.5241  -54.8457 H         1 UNK         0.1355 
     79 H79        31.9446  -42.9309  -56.9121 H         1 UNK         0.0707 
     80 H80        30.7916  -41.6231  -56.8953 H         1 UNK         0.0707 
     81 H81        28.7982  -41.7410  -58.3089 H         1 UNK         0.1034 
     82 H82        27.9877  -42.2159  -56.8531 H         1 UNK         0.1034 
     83 H83        26.4365  -42.5229  -58.6241 H         1 UNK         0.0482 
     84 H84        27.9134  -44.7746  -61.6037 H         1 UNK         0.3460 
     85 H85        27.4542  -45.4975  -60.0801 H         1 UNK         0.3460 
     86 H86        27.3684  -44.9392  -57.3402 H         1 UNK         0.2989 
     87 H87        24.8514  -46.1337  -56.4939 H         1 UNK         0.0559 
     88 H88        23.9985  -48.1428  -57.7269 H         1 UNK         0.0848 
     89 H89        24.4953  -47.4166  -59.2546 H         1 UNK         0.0848 
     90 H90        23.2352  -46.6646  -58.2866 H         1 UNK         0.0848 
     91 H91        26.6337  -47.4000  -56.2817 H         1 UNK         0.3144 
     92 H92        28.9387  -48.9552  -58.5341 H         1 UNK         0.0727 
     93 H93        30.5083  -48.0719  -56.8117 H         1 UNK         0.0790 
     94 H94        29.3065  -46.8984  -56.2886 H         1 UNK         0.0790 
     95 H95        29.9907  -46.8009  -57.9064 H         1 UNK         0.0790 
     96 H96        28.6045  -49.2729  -55.7422 H         1 UNK         0.3215 
     97 H97        26.2524  -51.9845  -55.8918 H         1 UNK         0.0863 
     98 H98        28.1594  -53.0101  -54.6333 H         1 UNK         0.0808 
     99 H99        29.2474  -51.7981  -55.3081 H         1 UNK         0.0808 
    100 H100       28.4663  -52.9637  -56.3638 H         1 UNK         0.0808 
    101 H101       27.7455  -50.2897  -53.9576 H         1 UNK         0.3118 
    102 H102       24.8195  -48.6595  -52.8567 H         1 UNK         0.0546 
    103 H103       26.2971  -50.8772  -51.3381 H         1 UNK         0.0828 
    104 H104       24.5624  -50.8144  -51.6137 H         1 UNK         0.0828 
    105 H105       25.3283  -49.5907  -50.6165 H         1 UNK         0.0828 
    106 H106       27.4160  -48.6737  -51.7358 H         1 UNK         0.3005 
    107 H107       28.9190  -46.2753  -53.9004 H         1 UNK         0.1257 
    108 H108       29.1819  -45.2641  -51.5488 H         1 UNK         0.0775 
    109 H109       27.7019  -46.0541  -51.0926 H         1 UNK         0.0775 
    110 H110       27.7893  -41.9138  -52.4278 H         1 UNK         0.0840 
    111 H111       28.4916  -42.8269  -51.1176 H         1 UNK         0.0840 
    112 H112       30.0620  -47.3644  -51.6623 H         1 UNK         0.2987 
    113 H113       31.8308  -48.6342  -51.8982 H         1 UNK         0.0785 
    114 H114       30.2378  -51.2467  -52.0484 H         1 UNK         0.0798 
    115 H115       30.3003  -50.1148  -50.7120 H         1 UNK         0.0798 
    116 H116       31.7313  -51.0433  -51.1310 H         1 UNK         0.0798 
    117 H117       33.0328  -49.1270  -53.6609 H         1 UNK         0.3079 
    118 H118       33.8400  -51.9165  -55.3778 H         1 UNK         0.0794 
    119 H119       32.1759  -49.8249  -56.8776 H         1 UNK         0.0786 
    120 H120       31.9676  -51.5659  -56.9582 H         1 UNK         0.0786 
    121 H121       33.4320  -50.8336  -57.5949 H         1 UNK         0.0786 
    122 H122       34.1769  -48.9866  -55.6534 H         1 UNK         0.3032 
    123 H123       36.8356  -48.8547  -53.3525 H         1 UNK         0.1094 
    124 H124       38.3155  -48.0899  -55.1964 H         1 UNK         0.0794 
    125 H125       38.1483  -49.8360  -55.2439 H         1 UNK         0.0794 
    126 H126       37.2604  -48.8449  -56.3927 H         1 UNK         0.0794 
    127 H127       36.0209  -46.9727  -55.3278 H         1 UNK         0.3016 
@<TRIPOS>BOND
     1    1    2 1    
     2    1   67 1    
     3    1   68 1    
     4    1   69 1    
     5    2    3 2    
     6    2    4 am   BACKBONE|DICT|INTERRES
     7    4    5 1    
     8    4   70 1    
     9    5    6 1    
    10    5   65 1    
    11    5   71 1    
    12    6    7 1    
    13    6   72 1    
    14    6   73 1    
    15    7    8 1    
    16    8    9 1    
    17    8   74 1    
    18    8   75 1    
    19    9   10 ar   
    20    9   14 ar   
    21   10   11 ar   
    22   10   76 1    
    23   11   12 ar   
    24   11   48 1    
    25   12   13 ar   
    26   12   77 1    
    27   13   14 ar   
    28   13   15 1    
    29   14   78 1    
    30   15   16 1    
    31   15   79 1    
    32   15   80 1    
    33   16   17 1    
    34   17   18 1    
    35   17   81 1    
    36   17   82 1    
    37   18   19 1    
    38   18   22 1    
    39   18   83 1    
    40   19   20 am   BACKBONE|DICT|INTERRES
    41   19   21 2    
    42   20   84 1    
    43   20   85 1    
    44   22   23 am   BACKBONE|DICT|INTERRES
    45   22   86 1    
    46   23   24 2    
    47   23   25 1    
    48   25   26 1    
    49   25   27 1    
    50   25   87 1    
    51   26   88 1    
    52   26   89 1    
    53   26   90 1    
    54   27   28 am   BACKBONE|DICT|INTERRES
    55   27   91 1    
    56   28   29 2    
    57   28   30 1    
    58   30   31 1    
    59   30   32 1    
    60   30   92 1    
    61   31   93 1    
    62   31   94 1    
    63   31   95 1    
    64   32   33 am   BACKBONE|DICT|INTERRES
    65   32   96 1    
    66   33   34 2    
    67   33   35 1    
    68   35   36 1    
    69   35   37 1    
    70   35   97 1    
    71   36   98 1    
    72   36   99 1    
    73   36  100 1    
    74   37   38 am   BACKBONE|DICT|INTERRES
    75   37  101 1    
    76   38   39 2    
    77   38   40 1    
    78   40   41 1    
    79   40   42 1    
    80   40  102 1    
    81   41  103 1    
    82   41  104 1    
    83   41  105 1    
    84   42   43 am   BACKBONE|DICT|INTERRES
    85   42  106 1    
    86   43   44 2    
    87   43   45 1    
    88   45   46 1    
    89   45   49 1    
    90   45  107 1    
    91   46   47 1    
    92   46  108 1    
    93   46  109 1    
    94   47   48 1    
    95   48  110 1    
    96   48  111 1    
    97   49   50 am   BACKBONE|DICT|INTERRES
    98   49  112 1    
    99   50   51 2    
   100   50   52 1    
   101   52   53 1    
   102   52   54 1    
   103   52  113 1    
   104   53  114 1    
   105   53  115 1    
   106   53  116 1    
   107   54   55 am   BACKBONE|DICT|INTERRES
   108   54  117 1    
   109   55   56 2    
   110   55   57 1    
   111   57   58 1    
   112   57   59 1    
   113   57  118 1    
   114   58  119 1    
   115   58  120 1    
   116   58  121 1    
   117   59   60 am   BACKBONE|DICT|INTERRES
   118   59  122 1    
   119   60   61 2    
   120   60   62 1    
   121   62   63 1    
   122   62   64 1    
   123   62  123 1    
   124   63  124 1    
   125   63  125 1    
   126   63  126 1    
   127   64   65 am   BACKBONE|DICT|INTERRES
   128   64  127 1    
   129   65   66 2    
@<TRIPOS>SUBSTRUCTURE
     1 UNK         1 GROUP             0       ****    0 ROOT    
