@<TRIPOS>MOLECULE
3R134
127   129    1
SMALL
USER_CHARGES


@<TRIPOS>ATOM
      1 CA         35.4898  -46.3462  -49.5627 C.3       0 UNK        -0.1968 
      2 C          34.9714  -46.4435  -50.9888 C.2       0 UNK         0.4852 
      3 O          34.8335  -47.5481  -51.5126 O.2       0 UNK        -0.5359 
      4 N          34.6624  -45.3009  -51.6170 N.am      1 UNK        -0.4300 
      5 CA         34.1739  -45.1837  -52.9994 C.3       1 UNK         0.0863 
      6 C6         34.0091  -43.6920  -53.3920 C.3       11 UNK        -0.0953 
      7 S7         34.2929  -43.3807  -55.1640 S.3       11 UNK        -0.2369 
      8 C8         32.7929  -42.4547  -55.6205 C.3       11 UNK         0.0226 
      9 C9         31.5778  -43.3633  -55.7137 C.ar      11 UNK        -0.0699 
     10 C10        31.4668  -44.2601  -56.7760 C.ar      11 UNK        -0.0804 
     11 C11        30.3728  -45.1226  -56.8698 C.ar      11 UNK        -0.0871 
     12 C12        29.3661  -45.0695  -55.8991 C.ar      11 UNK        -0.1008 
     13 C13        29.4482  -44.1475  -54.8487 C.ar      11 UNK        -0.0735 
     14 C14        30.5643  -43.3082  -54.7541 C.ar      11 UNK        -0.0945 
     15 C15        28.3436  -44.0463  -53.8031 C.3       11 UNK         0.0169 
     16 S16        26.7846  -43.3264  -54.4257 S.3       11 UNK        -0.2669 
     17 C17        27.3038  -41.9040  -55.4610 C.3       11 UNK        -0.0850 
     18 CA         26.6523  -41.9046  -56.8740 C.3       10 UNK         0.0855 
     19 C          27.2547  -40.7813  -57.7670 C.2       10 UNK         0.5543 
     20 N          27.8811  -41.0921  -58.8950 N.am      10 UNK        -0.7343 
     21 O          27.1473  -39.6054  -57.4279 O.2       10 UNK        -0.5027 
     22 N          26.6314  -43.2498  -57.4721 N.am      10 UNK        -0.4495 
     23 C          25.8137  -43.6529  -58.4530 C.2       10 UNK         0.4903 
     24 O          25.0833  -42.9010  -59.0985 O.2       10 UNK        -0.4860 
     25 CA         25.7723  -45.1676  -58.7299 C.3       9 UNK         0.0227 
     26 CB         26.8413  -45.5561  -59.7629 C.3       9 UNK        -0.1964 
     27 N          25.9348  -45.9780  -57.5156 N.am      9 UNK        -0.4231 
     28 C          25.0793  -46.0012  -56.4831 C.2       9 UNK         0.5014 
     29 O          24.0020  -45.4023  -56.4737 O.2       9 UNK        -0.5270 
     30 CA         25.4980  -46.8531  -55.2679 C.3       8 UNK         0.0284 
     31 CB         24.6177  -46.5933  -54.0308 C.3       8 UNK        -0.1977 
     32 N          25.4807  -48.2851  -55.5697 N.am      8 UNK        -0.4342 
     33 C          26.3920  -48.9283  -56.3071 C.2       8 UNK         0.5039 
     34 O          27.3596  -48.3744  -56.8381 O.2       8 UNK        -0.5547 
     35 CA         26.1648  -50.4289  -56.5109 C.3       7 UNK         0.0281 
     36 CB         25.1498  -50.6827  -57.6406 C.3       7 UNK        -0.1963 
     37 N          27.4406  -51.0538  -56.8424 N.am      7 UNK        -0.4444 
     38 C          27.7722  -52.3272  -56.5991 C.2       7 UNK         0.5104 
     39 O          27.0094  -53.1415  -56.0770 O.2       7 UNK        -0.5100 
     40 CA         29.1828  -52.7877  -57.0157 C.3       6 UNK         0.0396 
     41 CB         29.1126  -53.6105  -58.3126 C.3       6 UNK        -0.1801 
     42 N          30.1300  -51.6837  -57.2019 N.am      6 UNK        -0.4747 
     43 C          30.7194  -51.0113  -56.2031 C.2       6 UNK         0.5012 
     44 O          30.5384  -51.2639  -55.0107 O.2       6 UNK        -0.5003 
     45 CA         31.6166  -49.8308  -56.6255 C.3       5 UNK         0.0782 
     46 C46        30.7585  -48.5653  -56.8460 C.3       11 UNK        -0.0868 
     47 S47        31.5938  -47.3668  -57.9231 S.3       11 UNK        -0.2515 
     48 C48        30.2977  -46.0952  -58.0352 C.3       11 UNK         0.0199 
     49 N          32.6839  -49.5981  -55.6494 N.am      5 UNK        -0.4607 
     50 C          33.7580  -50.3849  -55.5078 C.2       4 UNK         0.5031 
     51 O          34.0252  -51.3214  -56.2622 O.2       4 UNK        -0.5119 
     52 CA         34.6836  -50.0911  -54.3153 C.3       4 UNK         0.0263 
     53 CB         35.6624  -48.9538  -54.6501 C.3       4 UNK        -0.1967 
     54 N          33.9419  -49.7564  -53.0984 N.am      4 UNK        -0.4237 
     55 C          33.1508  -50.6019  -52.4205 C.2       3 UNK         0.4908 
     56 O          33.0311  -51.7968  -52.6930 O.2       3 UNK        -0.5102 
     57 CA         32.3632  -50.0241  -51.2338 C.3       3 UNK         0.0241 
     58 CB         33.1688  -50.1524  -49.9300 C.3       3 UNK        -0.1971 
     59 N          32.0032  -48.6213  -51.4533 N.am      3 UNK        -0.4139 
     60 C          30.8860  -48.2127  -52.0723 C.2       2 UNK         0.5016 
     61 O          30.0006  -48.9739  -52.4599 O.2       2 UNK        -0.5319 
     62 CA         30.7018  -46.6977  -52.2809 C.3       2 UNK         0.0286 
     63 CB         29.7796  -46.1248  -51.1919 C.3       2 UNK        -0.1963 
     64 N          31.9549  -45.9392  -52.2844 N.am      2 UNK        -0.4790 
     65 C          32.8851  -46.0016  -53.2489 C.2       1 UNK         0.5024 
     66 O          32.7892  -46.7222  -54.2431 O.2       1 UNK        -0.4888 
     67 H67        36.4863  -46.7821  -49.4979 H         1 UNK         0.0892 
     68 H68        35.5472  -45.3141  -49.2175 H         1 UNK         0.0892 
     69 H69        34.8337  -46.8949  -48.8876 H         1 UNK         0.0892 
     70 H70        34.7939  -44.4274  -51.1270 H         1 UNK         0.3107 
     71 H71        34.9534  -45.6231  -53.6258 H         1 UNK         0.0773 
     72 H72        34.7471  -43.0817  -52.8689 H         1 UNK         0.0680 
     73 H73        33.0391  -43.3013  -53.0793 H         1 UNK         0.0680 
     74 H74        32.6281  -41.6470  -54.9056 H         1 UNK         0.0650 
     75 H75        32.9566  -41.9774  -56.5877 H         1 UNK         0.0650 
     76 H76        32.2495  -44.3047  -57.5211 H         1 UNK         0.1397 
     77 H77        28.5205  -45.7388  -55.9635 H         1 UNK         0.1363 
     78 H78        30.6405  -42.6044  -53.9368 H         1 UNK         0.1355 
     79 H79        28.6780  -43.4503  -52.9528 H         1 UNK         0.0707 
     80 H80        28.1291  -45.0409  -53.4110 H         1 UNK         0.0707 
     81 H81        28.3886  -41.8727  -55.5502 H         1 UNK         0.1034 
     82 H82        27.0340  -40.9890  -54.9306 H         1 UNK         0.1034 
     83 H83        25.6059  -41.6274  -56.7317 H         1 UNK         0.0482 
     84 H84        27.9625  -42.0546  -59.1794 H         1 UNK         0.3460 
     85 H85        28.2653  -40.3581  -59.4685 H         1 UNK         0.3460 
     86 H86        27.1906  -43.9399  -56.9947 H         1 UNK         0.2989 
     87 H87        24.7924  -45.4028  -59.1505 H         1 UNK         0.0559 
     88 H88        26.6612  -45.0507  -60.7128 H         1 UNK         0.0848 
     89 H89        26.8366  -46.6281  -59.9617 H         1 UNK         0.0848 
     90 H90        27.8418  -45.2759  -59.4356 H         1 UNK         0.0848 
     91 H91        26.7302  -46.6090  -57.4681 H         1 UNK         0.3144 
     92 H92        26.5179  -46.5667  -55.0044 H         1 UNK         0.0727 
     93 H93        24.9838  -47.1398  -53.1615 H         1 UNK         0.0790 
     94 H94        23.5808  -46.8857  -54.2008 H         1 UNK         0.0790 
     95 H95        24.6185  -45.5345  -53.7680 H         1 UNK         0.0790 
     96 H96        24.6940  -48.8067  -55.2096 H         1 UNK         0.3215 
     97 H97        25.7889  -50.8498  -55.5755 H         1 UNK         0.0863 
     98 H98        24.9708  -51.7487  -57.7819 H         1 UNK         0.0808 
     99 H99        25.4962  -50.2732  -58.5904 H         1 UNK         0.0808 
    100 H100       24.1870  -50.2215  -57.4176 H         1 UNK         0.0808 
    101 H101       28.1294  -50.4168  -57.2208 H         1 UNK         0.3118 
    102 H102       29.5612  -53.4381  -56.2240 H         1 UNK         0.0546 
    103 H103       28.7424  -53.0170  -59.1495 H         1 UNK         0.0828 
    104 H104       28.4418  -54.4632  -58.1976 H         1 UNK         0.0828 
    105 H105       30.0907  -54.0065  -58.5861 H         1 UNK         0.0828 
    106 H106       30.3223  -51.4153  -58.1573 H         1 UNK         0.3005 
    107 H107       32.0867  -50.1063  -57.5729 H         1 UNK         0.1257 
    108 H108       29.8199  -48.8149  -57.3414 H         1 UNK         0.0775 
    109 H109       30.4933  -48.0922  -55.8978 H         1 UNK         0.0775 
    110 H110       30.4245  -45.5441  -58.9681 H         1 UNK         0.0840 
    111 H111       29.3178  -46.5712  -58.0890 H         1 UNK         0.0840 
    112 H112       32.5517  -48.8261  -55.0079 H         1 UNK         0.2987 
    113 H113       35.2646  -50.9935  -54.1137 H         1 UNK         0.0785 
    114 H114       36.3546  -48.7713  -53.8278 H         1 UNK         0.0798 
    115 H115       35.1404  -48.0196  -54.8604 H         1 UNK         0.0798 
    116 H116       36.2589  -49.1994  -55.5297 H         1 UNK         0.0798 
    117 H117       34.0734  -48.8192  -52.7278 H         1 UNK         0.3079 
    118 H118       31.4519  -50.6163  -51.1229 H         1 UNK         0.0794 
    119 H119       33.4092  -51.1963  -49.7242 H         1 UNK         0.0786 
    120 H120       32.6042  -49.7762  -49.0767 H         1 UNK         0.0786 
    121 H121       34.1113  -49.6062  -49.9760 H         1 UNK         0.0786 
    122 H122       32.7041  -47.9327  -51.2118 H         1 UNK         0.3032 
    123 H123       30.2248  -46.5612  -53.2543 H         1 UNK         0.1094 
    124 H124       29.6242  -45.0540  -51.3190 H         1 UNK         0.0794 
    125 H125       28.7987  -46.6013  -51.2229 H         1 UNK         0.0794 
    126 H126       30.1877  -46.2851  -50.1931 H         1 UNK         0.0794 
    127 H127       32.1283  -45.3415  -51.4891 H         1 UNK         0.3016 
@<TRIPOS>BOND
     1    1    2 1    
     2    1   67 1    
     3    1   68 1    
     4    1   69 1    
     5    2    3 2    
     6    2    4 am   BACKBONE|DICT|INTERRES
     7    4    5 1    
     8    4   70 1    
     9    5    6 1    
    10    5   65 1    
    11    5   71 1    
    12    6    7 1    
    13    6   72 1    
    14    6   73 1    
    15    7    8 1    
    16    8    9 1    
    17    8   74 1    
    18    8   75 1    
    19    9   10 ar   
    20    9   14 ar   
    21   10   11 ar   
    22   10   76 1    
    23   11   12 ar   
    24   11   48 1    
    25   12   13 ar   
    26   12   77 1    
    27   13   14 ar   
    28   13   15 1    
    29   14   78 1    
    30   15   16 1    
    31   15   79 1    
    32   15   80 1    
    33   16   17 1    
    34   17   18 1    
    35   17   81 1    
    36   17   82 1    
    37   18   19 1    
    38   18   22 1    
    39   18   83 1    
    40   19   20 am   BACKBONE|DICT|INTERRES
    41   19   21 2    
    42   20   84 1    
    43   20   85 1    
    44   22   23 am   BACKBONE|DICT|INTERRES
    45   22   86 1    
    46   23   24 2    
    47   23   25 1    
    48   25   26 1    
    49   25   27 1    
    50   25   87 1    
    51   26   88 1    
    52   26   89 1    
    53   26   90 1    
    54   27   28 am   BACKBONE|DICT|INTERRES
    55   27   91 1    
    56   28   29 2    
    57   28   30 1    
    58   30   31 1    
    59   30   32 1    
    60   30   92 1    
    61   31   93 1    
    62   31   94 1    
    63   31   95 1    
    64   32   33 am   BACKBONE|DICT|INTERRES
    65   32   96 1    
    66   33   34 2    
    67   33   35 1    
    68   35   36 1    
    69   35   37 1    
    70   35   97 1    
    71   36   98 1    
    72   36   99 1    
    73   36  100 1    
    74   37   38 am   BACKBONE|DICT|INTERRES
    75   37  101 1    
    76   38   39 2    
    77   38   40 1    
    78   40   41 1    
    79   40   42 1    
    80   40  102 1    
    81   41  103 1    
    82   41  104 1    
    83   41  105 1    
    84   42   43 am   BACKBONE|DICT|INTERRES
    85   42  106 1    
    86   43   44 2    
    87   43   45 1    
    88   45   46 1    
    89   45   49 1    
    90   45  107 1    
    91   46   47 1    
    92   46  108 1    
    93   46  109 1    
    94   47   48 1    
    95   48  110 1    
    96   48  111 1    
    97   49   50 am   BACKBONE|DICT|INTERRES
    98   49  112 1    
    99   50   51 2    
   100   50   52 1    
   101   52   53 1    
   102   52   54 1    
   103   52  113 1    
   104   53  114 1    
   105   53  115 1    
   106   53  116 1    
   107   54   55 am   BACKBONE|DICT|INTERRES
   108   54  117 1    
   109   55   56 2    
   110   55   57 1    
   111   57   58 1    
   112   57   59 1    
   113   57  118 1    
   114   58  119 1    
   115   58  120 1    
   116   58  121 1    
   117   59   60 am   BACKBONE|DICT|INTERRES
   118   59  122 1    
   119   60   61 2    
   120   60   62 1    
   121   62   63 1    
   122   62   64 1    
   123   62  123 1    
   124   63  124 1    
   125   63  125 1    
   126   63  126 1    
   127   64   65 am   BACKBONE|DICT|INTERRES
   128   64  127 1    
   129   65   66 2    
@<TRIPOS>SUBSTRUCTURE
     1 UNK         1 GROUP             0       ****    0 ROOT    
