@<TRIPOS>MOLECULE
3R134
127   129    1
SMALL
USER_CHARGES


@<TRIPOS>ATOM
      1 CA         29.4469  -43.6419  -51.1584 C.3       0 UNK        -0.1968 
      2 C          30.4830  -44.4060  -50.3455 C.2       0 UNK         0.4852 
      3 O          30.2681  -44.6494  -49.1569 O.2       0 UNK        -0.5359 
      4 N          31.6032  -44.7766  -50.9782 N.am      1 UNK        -0.4300 
      5 CA         32.6731  -45.5956  -50.4024 C.3       1 UNK         0.0863 
      6 C6         34.0623  -45.1628  -50.9486 C.3       11 UNK        -0.0953 
      7 S7         34.2636  -45.4254  -52.7443 S.3       11 UNK        -0.2369 
      8 C8         34.1457  -43.7387  -53.4205 C.3       11 UNK         0.0226 
      9 C9         33.2789  -43.7279  -54.6697 C.ar      11 UNK        -0.0699 
     10 C10        33.7603  -44.2703  -55.8636 C.ar      11 UNK        -0.0804 
     11 C11        32.9522  -44.3065  -57.0029 C.ar      11 UNK        -0.0871 
     12 C12        31.6521  -43.7978  -56.9419 C.ar      11 UNK        -0.1008 
     13 C13        31.1554  -43.2421  -55.7528 C.ar      11 UNK        -0.0735 
     14 C14        31.9856  -43.2002  -54.6280 C.ar      11 UNK        -0.0945 
     15 C15        29.7360  -42.6888  -55.6106 C.3       11 UNK         0.0169 
     16 S16        28.6550  -42.8916  -57.0652 S.3       11 UNK        -0.2669 
     17 C17        27.0455  -42.3925  -56.3646 C.3       11 UNK        -0.0850 
     18 CA         26.1626  -43.6058  -55.9713 C.3       10 UNK         0.0855 
     19 C          24.8213  -43.1121  -55.3625 C.2       10 UNK         0.5543 
     20 N          24.7313  -43.0280  -54.0424 N.am      10 UNK        -0.7343 
     21 O          23.8866  -42.7565  -56.0782 O.2       10 UNK        -0.5027 
     22 N          25.9895  -44.5166  -57.1117 N.am      10 UNK        -0.4495 
     23 C          25.3122  -45.6702  -57.1181 C.2       10 UNK         0.4903 
     24 O          24.7178  -46.1298  -56.1423 O.2       10 UNK        -0.4860 
     25 CA         25.2834  -46.4526  -58.4395 C.3       9 UNK         0.0227 
     26 CB         25.9673  -45.7400  -59.6267 C.3       9 UNK        -0.1964 
     27 N          25.9299  -47.7435  -58.2219 N.am      9 UNK        -0.4231 
     28 C          25.3485  -48.9354  -58.4009 C.2       9 UNK         0.5014 
     29 O          24.1904  -49.0876  -58.7943 O.2       9 UNK        -0.5270 
     30 CA         26.2048  -50.1790  -58.1168 C.3       8 UNK         0.0284 
     31 CB         27.0558  -50.5316  -59.3478 C.3       8 UNK        -0.1977 
     32 N          27.0694  -50.0399  -56.9420 N.am      8 UNK        -0.4342 
     33 C          26.6338  -50.0413  -55.6739 C.2       8 UNK         0.5039 
     34 O          25.4477  -50.1416  -55.3572 O.2       8 UNK        -0.5547 
     35 CA         27.6986  -49.9377  -54.5682 C.3       7 UNK         0.0281 
     36 CB         28.4022  -51.2878  -54.3534 C.3       7 UNK        -0.1963 
     37 N          28.6963  -48.9050  -54.8423 N.am      7 UNK        -0.4444 
     38 C          28.4644  -47.5870  -54.7737 C.2       7 UNK         0.5104 
     39 O          27.3995  -47.0914  -54.4088 O.2       7 UNK        -0.5100 
     40 CA         29.6218  -46.6638  -55.1853 C.3       6 UNK         0.0396 
     41 CB         30.5595  -46.4276  -53.9940 C.3       6 UNK        -0.1801 
     42 N          30.3903  -47.1947  -56.3118 N.am      6 UNK        -0.4747 
     43 C          29.9138  -47.3338  -57.5563 C.2       6 UNK         0.5012 
     44 O          28.7727  -47.0156  -57.8937 O.2       6 UNK        -0.5003 
     45 CA         30.8465  -48.0028  -58.5848 C.3       5 UNK         0.0782 
     46 C46        31.8120  -46.9870  -59.2539 C.3       11 UNK        -0.0868 
     47 S47        33.3706  -46.6974  -58.3371 S.3       11 UNK        -0.2515 
     48 C48        33.4978  -44.8827  -58.3000 C.3       11 UNK         0.0199 
     49 N          31.5491  -49.1653  -58.0300 N.am      5 UNK        -0.4607 
     50 C          30.9629  -50.2818  -57.5810 C.2       4 UNK         0.5031 
     51 O          29.7533  -50.4882  -57.6400 O.2       4 UNK        -0.5119 
     52 CA         31.8714  -51.3213  -56.9043 C.3       4 UNK         0.0263 
     53 CB         32.5024  -52.2503  -57.9532 C.3       4 UNK        -0.1967 
     54 N          32.9236  -50.7223  -56.0757 N.am      4 UNK        -0.4237 
     55 C          32.7004  -49.9411  -55.0095 C.2       3 UNK         0.4908 
     56 O          31.5752  -49.6236  -54.6185 O.2       3 UNK        -0.5102 
     57 CA         33.9507  -49.3740  -54.3154 C.3       3 UNK         0.0241 
     58 CB         34.4377  -48.1182  -55.0563 C.3       3 UNK        -0.1971 
     59 N          33.7272  -49.0420  -52.9046 N.am      3 UNK        -0.4139 
     60 C          33.4710  -49.9343  -51.9362 C.2       2 UNK         0.5016 
     61 O          33.4053  -51.1489  -52.1351 O.2       2 UNK        -0.5319 
     62 CA         33.3030  -49.4120  -50.4932 C.3       2 UNK         0.0286 
     63 CB         34.3565  -50.0394  -49.5627 C.3       2 UNK        -0.1963 
     64 N          33.3873  -47.9520  -50.3685 N.am      2 UNK        -0.4790 
     65 C          32.3692  -47.1060  -50.5747 C.2       1 UNK         0.5024 
     66 O          31.2398  -47.4866  -50.8897 O.2       1 UNK        -0.4888 
     67 H67        29.7737  -43.4703  -52.1832 H         1 UNK         0.0892 
     68 H68        28.5120  -44.2008  -51.1912 H         1 UNK         0.0892 
     69 H69        29.2494  -42.6734  -50.6996 H         1 UNK         0.0892 
     70 H70        31.7105  -44.5789  -51.9612 H         1 UNK         0.3107 
     71 H71        32.6943  -45.4231  -49.3242 H         1 UNK         0.0773 
     72 H72        34.8640  -45.6963  -50.4360 H         1 UNK         0.0680 
     73 H73        34.2370  -44.1126  -50.7113 H         1 UNK         0.0680 
     74 H74        35.1468  -43.3769  -53.6590 H         1 UNK         0.0650 
     75 H75        33.7394  -43.0535  -52.6754 H         1 UNK         0.0650 
     76 H76        34.7607  -44.6799  -55.9003 H         1 UNK         0.1397 
     77 H77        31.0379  -43.8437  -57.8291 H         1 UNK         0.1363 
     78 H78        31.6133  -42.7715  -53.7081 H         1 UNK         0.1355 
     79 H79        29.2590  -43.1812  -54.7617 H         1 UNK         0.0707 
     80 H80        29.7947  -41.6271  -55.3668 H         1 UNK         0.0707 
     81 H81        26.5339  -41.7765  -57.1070 H         1 UNK         0.1034 
     82 H82        27.2119  -41.7420  -55.5035 H         1 UNK         0.1034 
     83 H83        26.6920  -44.1752  -55.2043 H         1 UNK         0.0482 
     84 H84        25.4936  -43.3134  -53.4479 H         1 UNK         0.3460 
     85 H85        23.8747  -42.6923  -53.6304 H         1 UNK         0.3460 
     86 H86        26.4564  -44.2336  -57.9598 H         1 UNK         0.2989 
     87 H87        24.2298  -46.5843  -58.6929 H         1 UNK         0.0559 
     88 H88        27.0310  -45.5728  -59.4509 H         1 UNK         0.0848 
     89 H89        25.5023  -44.7749  -59.8325 H         1 UNK         0.0848 
     90 H90        25.8783  -46.3331  -60.5370 H         1 UNK         0.0848 
     91 H91        26.8903  -47.7021  -57.8916 H         1 UNK         0.3144 
     92 H92        25.5232  -51.0122  -57.9321 H         1 UNK         0.0727 
     93 H93        27.6005  -51.4642  -59.1989 H         1 UNK         0.0790 
     94 H94        27.7841  -49.7510  -59.5715 H         1 UNK         0.0790 
     95 H95        26.4307  -50.6595  -60.2326 H         1 UNK         0.0790 
     96 H96        28.0737  -50.0316  -57.1168 H         1 UNK         0.3215 
     97 H97        27.1880  -49.6733  -53.6394 H         1 UNK         0.0863 
     98 H98        29.1239  -51.2331  -53.5380 H         1 UNK         0.0808 
     99 H99        28.9339  -51.6154  -55.2470 H         1 UNK         0.0808 
    100 H100       27.6816  -52.0660  -54.0991 H         1 UNK         0.0808 
    101 H101       29.6372  -49.2127  -55.0696 H         1 UNK         0.3118 
    102 H102       29.2012  -45.7040  -55.4920 H         1 UNK         0.0546 
    103 H103       30.9144  -47.3635  -53.5638 H         1 UNK         0.0828 
    104 H104       30.0430  -45.8861  -53.2022 H         1 UNK         0.0828 
    105 H105       31.4350  -45.8502  -54.2810 H         1 UNK         0.0828 
    106 H106       31.3257  -47.5191  -56.1149 H         1 UNK         0.3005 
    107 H107       30.1879  -48.3835  -59.3693 H         1 UNK         0.1257 
    108 H108       31.3053  -46.0404  -59.4518 H         1 UNK         0.0775 
    109 H109       32.0961  -47.3683  -60.2358 H         1 UNK         0.0775 
    110 H110       34.5495  -44.6095  -58.3991 H         1 UNK         0.0840 
    111 H111       32.9968  -44.4448  -59.1644 H         1 UNK         0.0840 
    112 H112       32.5494  -49.0657  -57.9360 H         1 UNK         0.2987 
    113 H113       31.2424  -51.9263  -56.2481 H         1 UNK         0.0785 
    114 H114       31.7340  -52.7203  -58.5690 H         1 UNK         0.0798 
    115 H115       33.0717  -53.0521  -57.4826 H         1 UNK         0.0798 
    116 H116       33.1720  -51.7103  -58.6239 H         1 UNK         0.0798 
    117 H117       33.8773  -50.9255  -56.3394 H         1 UNK         0.3079 
    118 H118       34.7381  -50.1296  -54.3538 H         1 UNK         0.0794 
    119 H119       34.6937  -48.3461  -56.0915 H         1 UNK         0.0786 
    120 H120       35.3326  -47.7032  -54.5923 H         1 UNK         0.0786 
    121 H121       33.6755  -47.3377  -55.0742 H         1 UNK         0.0786 
    122 H122       33.7456  -48.0631  -52.6585 H         1 UNK         0.3032 
    123 H123       32.3170  -49.7399  -50.1552 H         1 UNK         0.1094 
    124 H124       35.3704  -49.7680  -49.8595 H         1 UNK         0.0794 
    125 H125       34.2120  -49.7240  -48.5292 H         1 UNK         0.0794 
    126 H126       34.2944  -51.1286  -49.5756 H         1 UNK         0.0794 
    127 H127       34.2918  -47.5740  -50.1239 H         1 UNK         0.3016 
@<TRIPOS>BOND
     1    1    2 1    
     2    1   67 1    
     3    1   68 1    
     4    1   69 1    
     5    2    3 2    
     6    2    4 am   BACKBONE|DICT|INTERRES
     7    4    5 1    
     8    4   70 1    
     9    5    6 1    
    10    5   65 1    
    11    5   71 1    
    12    6    7 1    
    13    6   72 1    
    14    6   73 1    
    15    7    8 1    
    16    8    9 1    
    17    8   74 1    
    18    8   75 1    
    19    9   10 ar   
    20    9   14 ar   
    21   10   11 ar   
    22   10   76 1    
    23   11   12 ar   
    24   11   48 1    
    25   12   13 ar   
    26   12   77 1    
    27   13   14 ar   
    28   13   15 1    
    29   14   78 1    
    30   15   16 1    
    31   15   79 1    
    32   15   80 1    
    33   16   17 1    
    34   17   18 1    
    35   17   81 1    
    36   17   82 1    
    37   18   19 1    
    38   18   22 1    
    39   18   83 1    
    40   19   20 am   BACKBONE|DICT|INTERRES
    41   19   21 2    
    42   20   84 1    
    43   20   85 1    
    44   22   23 am   BACKBONE|DICT|INTERRES
    45   22   86 1    
    46   23   24 2    
    47   23   25 1    
    48   25   26 1    
    49   25   27 1    
    50   25   87 1    
    51   26   88 1    
    52   26   89 1    
    53   26   90 1    
    54   27   28 am   BACKBONE|DICT|INTERRES
    55   27   91 1    
    56   28   29 2    
    57   28   30 1    
    58   30   31 1    
    59   30   32 1    
    60   30   92 1    
    61   31   93 1    
    62   31   94 1    
    63   31   95 1    
    64   32   33 am   BACKBONE|DICT|INTERRES
    65   32   96 1    
    66   33   34 2    
    67   33   35 1    
    68   35   36 1    
    69   35   37 1    
    70   35   97 1    
    71   36   98 1    
    72   36   99 1    
    73   36  100 1    
    74   37   38 am   BACKBONE|DICT|INTERRES
    75   37  101 1    
    76   38   39 2    
    77   38   40 1    
    78   40   41 1    
    79   40   42 1    
    80   40  102 1    
    81   41  103 1    
    82   41  104 1    
    83   41  105 1    
    84   42   43 am   BACKBONE|DICT|INTERRES
    85   42  106 1    
    86   43   44 2    
    87   43   45 1    
    88   45   46 1    
    89   45   49 1    
    90   45  107 1    
    91   46   47 1    
    92   46  108 1    
    93   46  109 1    
    94   47   48 1    
    95   48  110 1    
    96   48  111 1    
    97   49   50 am   BACKBONE|DICT|INTERRES
    98   49  112 1    
    99   50   51 2    
   100   50   52 1    
   101   52   53 1    
   102   52   54 1    
   103   52  113 1    
   104   53  114 1    
   105   53  115 1    
   106   53  116 1    
   107   54   55 am   BACKBONE|DICT|INTERRES
   108   54  117 1    
   109   55   56 2    
   110   55   57 1    
   111   57   58 1    
   112   57   59 1    
   113   57  118 1    
   114   58  119 1    
   115   58  120 1    
   116   58  121 1    
   117   59   60 am   BACKBONE|DICT|INTERRES
   118   59  122 1    
   119   60   61 2    
   120   60   62 1    
   121   62   63 1    
   122   62   64 1    
   123   62  123 1    
   124   63  124 1    
   125   63  125 1    
   126   63  126 1    
   127   64   65 am   BACKBONE|DICT|INTERRES
   128   64  127 1    
   129   65   66 2    
@<TRIPOS>SUBSTRUCTURE
     1 UNK         1 GROUP             0       ****    0 ROOT    
