@<TRIPOS>MOLECULE
3R134
127   129    1
SMALL
USER_CHARGES


@<TRIPOS>ATOM
      1 CA         31.3976  -46.2466  -46.4984 C.3       0 UNK        -0.1968 
      2 C          32.5107  -46.2149  -47.5355 C.2       0 UNK         0.4852 
      3 O          33.6535  -46.5418  -47.2126 O.2       0 UNK        -0.5359 
      4 N          32.1851  -45.8188  -48.7745 N.am      1 UNK        -0.4300 
      5 CA         33.1126  -45.7572  -49.9112 C.3       1 UNK         0.0863 
      6 C6         32.5003  -44.9422  -51.0784 C.3       11 UNK        -0.0953 
      7 S7         33.7398  -44.4042  -52.3020 S.3       11 UNK        -0.2369 
      8 C8         32.9447  -42.9405  -53.0459 C.3       11 UNK         0.0226 
      9 C9         32.2349  -43.2637  -54.3552 C.ar      11 UNK        -0.0699 
     10 C10        32.9842  -43.6762  -55.4616 C.ar      11 UNK        -0.0804 
     11 C11        32.3632  -43.9220  -56.6877 C.ar      11 UNK        -0.0871 
     12 C12        30.9855  -43.7453  -56.8030 C.ar      11 UNK        -0.1008 
     13 C13        30.2129  -43.3490  -55.7090 C.ar      11 UNK        -0.0735 
     14 C14        30.8481  -43.1094  -54.4826 C.ar      11 UNK        -0.0945 
     15 C15        28.6945  -43.2268  -55.8351 C.3       11 UNK         0.0169 
     16 S16        28.1439  -42.0770  -57.1404 S.3       11 UNK        -0.2669 
     17 C17        27.9260  -43.1628  -58.6008 C.3       11 UNK        -0.0850 
     18 CA         26.4796  -43.6954  -58.7538 C.3       10 UNK         0.0855 
     19 C          26.2522  -44.2842  -60.1701 C.2       10 UNK         0.5543 
     20 N          25.5479  -43.5690  -61.0360 N.am      10 UNK        -0.7343 
     21 O          26.7473  -45.3591  -60.5026 O.2       10 UNK        -0.5027 
     22 N          26.1798  -44.7084  -57.7357 N.am      10 UNK        -0.4495 
     23 C          24.9569  -44.9543  -57.2533 C.2       10 UNK         0.4903 
     24 O          23.9537  -44.3099  -57.5658 O.2       10 UNK        -0.4860 
     25 CA         24.8500  -46.1093  -56.2411 C.3       9 UNK         0.0227 
     26 CB         23.4002  -46.4021  -55.7983 C.3       9 UNK        -0.1964 
     27 N          25.5157  -47.3322  -56.7032 N.am      9 UNK        -0.4231 
     28 C          25.2173  -48.0715  -57.7845 C.2       9 UNK         0.5014 
     29 O          24.2958  -47.8099  -58.5592 O.2       9 UNK        -0.5270 
     30 CA         26.0804  -49.3204  -58.0674 C.3       8 UNK         0.0284 
     31 CB         26.9032  -49.1190  -59.3509 C.3       8 UNK        -0.1977 
     32 N          26.9853  -49.6889  -56.9740 N.am      8 UNK        -0.4342 
     33 C          26.6099  -50.2125  -55.7985 C.2       8 UNK         0.5039 
     34 O          25.4536  -50.5426  -55.5336 O.2       8 UNK        -0.5547 
     35 CA         27.6985  -50.3330  -54.7149 C.3       7 UNK         0.0281 
     36 CB         28.4407  -51.6739  -54.8270 C.3       7 UNK        -0.1963 
     37 N          28.6649  -49.2292  -54.7500 N.am      7 UNK        -0.4444 
     38 C          28.3603  -47.9376  -54.5580 C.2       7 UNK         0.5104 
     39 O          27.2335  -47.5347  -54.2741 O.2       7 UNK        -0.5100 
     40 CA         29.4805  -46.9164  -54.7914 C.3       6 UNK         0.0396 
     41 CB         30.4051  -46.8049  -53.5744 C.3       6 UNK        -0.1801 
     42 N          30.2514  -47.2300  -55.9947 N.am      6 UNK        -0.4747 
     43 C          29.8159  -47.0191  -57.2461 C.2       6 UNK         0.5012 
     44 O          28.7452  -46.4662  -57.5066 O.2       6 UNK        -0.5003 
     45 CA         30.6914  -47.5586  -58.4001 C.3       5 UNK         0.0782 
     46 C46        31.6129  -46.4759  -59.0215 C.3       11 UNK        -0.0868 
     47 S47        33.1622  -46.1711  -58.0912 S.3       11 UNK        -0.2515 
     48 C48        33.1775  -44.3625  -57.8935 C.3       11 UNK         0.0199 
     49 N          31.4488  -48.7554  -58.0242 N.am      5 UNK        -0.4607 
     50 C          30.9220  -49.9532  -57.7481 C.2       4 UNK         0.5031 
     51 O          29.7227  -50.2084  -57.8420 O.2       4 UNK        -0.5119 
     52 CA         31.8970  -51.0194  -57.2154 C.3       4 UNK         0.0263 
     53 CB         32.5970  -51.7413  -58.3772 C.3       4 UNK        -0.1967 
     54 N          32.9018  -50.4651  -56.2960 N.am      4 UNK        -0.4237 
     55 C          32.6012  -49.8779  -55.1294 C.2       3 UNK         0.4908 
     56 O          31.4484  -49.7759  -54.7058 O.2       3 UNK        -0.5102 
     57 CA         33.7613  -49.2338  -54.3509 C.3       3 UNK         0.0241 
     58 CB         34.1378  -47.8778  -54.9717 C.3       3 UNK        -0.1971 
     59 N          33.4073  -49.0136  -52.9479 N.am      3 UNK        -0.4139 
     60 C          33.3327  -49.9685  -52.0132 C.2       2 UNK         0.5016 
     61 O          33.6403  -51.1435  -52.2240 O.2       2 UNK        -0.5319 
     62 CA         32.8099  -49.5677  -50.6154 C.3       2 UNK         0.0286 
     63 CB         33.6564  -50.1941  -49.4866 C.3       2 UNK        -0.1963 
     64 N          32.6295  -48.1237  -50.3792 N.am      2 UNK        -0.4790 
     65 C          33.5732  -47.1665  -50.3523 C.2       1 UNK         0.5024 
     66 O          34.7571  -47.3612  -50.6289 O.2       1 UNK        -0.4888 
     67 H67        30.4425  -45.9248  -46.9132 H         1 UNK         0.0892 
     68 H68        31.2753  -47.2576  -46.1110 H         1 UNK         0.0892 
     69 H69        31.6430  -45.5894  -45.6646 H         1 UNK         0.0892 
     70 H70        31.2313  -45.5479  -48.9677 H         1 UNK         0.3107 
     71 H71        34.0006  -45.2251  -49.5618 H         1 UNK         0.0773 
     72 H72        31.7100  -45.4988  -51.5763 H         1 UNK         0.0680 
     73 H73        32.0255  -44.0461  -50.6761 H         1 UNK         0.0680 
     74 H74        33.7187  -42.1990  -53.2486 H         1 UNK         0.0650 
     75 H75        32.2633  -42.4725  -52.3345 H         1 UNK         0.0650 
     76 H76        34.0545  -43.7997  -55.3660 H         1 UNK         0.1397 
     77 H77        30.5202  -43.9289  -57.7539 H         1 UNK         0.1363 
     78 H78        30.2644  -42.7982  -53.6272 H         1 UNK         0.1355 
     79 H79        28.2675  -42.8877  -54.8903 H         1 UNK         0.0707 
     80 H80        28.2625  -44.2068  -56.0238 H         1 UNK         0.0707 
     81 H81        28.2043  -42.5680  -59.4732 H         1 UNK         0.1034 
     82 H82        28.6182  -44.0015  -58.5830 H         1 UNK         0.1034 
     83 H83        25.8005  -42.8501  -58.6217 H         1 UNK         0.0482 
     84 H84        25.1446  -42.6826  -60.7742 H         1 UNK         0.3460 
     85 H85        25.4044  -43.9291  -61.9666 H         1 UNK         0.3460 
     86 H86        26.9409  -45.3371  -57.5032 H         1 UNK         0.2989 
     87 H87        25.3984  -45.7836  -55.3562 H         1 UNK         0.0559 
     88 H88        22.7684  -46.6928  -56.6381 H         1 UNK         0.0848 
     89 H89        22.9468  -45.5214  -55.3418 H         1 UNK         0.0848 
     90 H90        23.3662  -47.2029  -55.0597 H         1 UNK         0.0848 
     91 H91        26.2836  -47.6389  -56.1167 H         1 UNK         0.3144 
     92 H92        25.3959  -50.1553  -58.2302 H         1 UNK         0.0727 
     93 H93        27.5755  -48.2653  -59.2657 H         1 UNK         0.0790 
     94 H94        26.2527  -48.9310  -60.2062 H         1 UNK         0.0790 
     95 H95        27.5010  -49.9997  -59.5863 H         1 UNK         0.0790 
     96 H96        27.9789  -49.5566  -57.1409 H         1 UNK         0.3215 
     97 H97        27.2001  -50.2994  -53.7438 H         1 UNK         0.0863 
     98 H98        29.1879  -51.7815  -54.0405 H         1 UNK         0.0808 
     99 H99        28.9478  -51.7770  -55.7861 H         1 UNK         0.0808 
    100 H100       27.7473  -52.5107  -54.7343 H         1 UNK         0.0808 
    101 H101       29.6402  -49.4722  -54.9159 H         1 UNK         0.3118 
    102 H102       29.0142  -45.9428  -54.9257 H         1 UNK         0.0546 
    103 H103       31.2292  -46.1199  -53.7742 H         1 UNK         0.0828 
    104 H104       30.8229  -47.7652  -53.2783 H         1 UNK         0.0828 
    105 H105       29.8534  -46.4173  -52.7175 H         1 UNK         0.0828 
    106 H106       31.1160  -47.7339  -55.8636 H         1 UNK         0.3005 
    107 H107       29.9880  -47.8621  -59.1788 H         1 UNK         0.1257 
    108 H108       31.0680  -45.5468  -59.1888 H         1 UNK         0.0775 
    109 H109       31.9118  -46.8050  -60.0179 H         1 UNK         0.0775 
    110 H110       34.2124  -44.0359  -57.7800 H         1 UNK         0.0840 
    111 H111       32.8104  -43.8816  -58.8015 H         1 UNK         0.0840 
    112 H112       32.4447  -48.6234  -57.9213 H         1 UNK         0.2987 
    113 H113       31.3092  -51.7545  -56.6617 H         1 UNK         0.0785 
    114 H114       31.8668  -52.1745  -59.0625 H         1 UNK         0.0798 
    115 H115       33.2236  -52.5577  -58.0172 H         1 UNK         0.0798 
    116 H116       33.2261  -51.0645  -58.9568 H         1 UNK         0.0798 
    117 H117       33.8674  -50.5132  -56.5893 H         1 UNK         0.3079 
    118 H118       34.6259  -49.8996  -54.3942 H         1 UNK         0.0794 
    119 H119       33.2949  -47.1852  -54.9866 H         1 UNK         0.0786 
    120 H120       34.4821  -47.9970  -55.9994 H         1 UNK         0.0786 
    121 H121       34.9472  -47.4002  -54.4187 H         1 UNK         0.0786 
    122 H122       33.1384  -48.0780  -52.6863 H         1 UNK         0.3032 
    123 H123       31.8118  -50.0045  -50.5512 H         1 UNK         0.1094 
    124 H124       34.6925  -49.8561  -49.5226 H         1 UNK         0.0794 
    125 H125       33.2563  -49.9431  -48.5042 H         1 UNK         0.0794 
    126 H126       33.6685  -51.2823  -49.5600 H         1 UNK         0.0794 
    127 H127       31.6874  -47.8460  -50.1402 H         1 UNK         0.3016 
@<TRIPOS>BOND
     1    1    2 1    
     2    1   67 1    
     3    1   68 1    
     4    1   69 1    
     5    2    3 2    
     6    2    4 am   BACKBONE|DICT|INTERRES
     7    4    5 1    
     8    4   70 1    
     9    5    6 1    
    10    5   65 1    
    11    5   71 1    
    12    6    7 1    
    13    6   72 1    
    14    6   73 1    
    15    7    8 1    
    16    8    9 1    
    17    8   74 1    
    18    8   75 1    
    19    9   10 ar   
    20    9   14 ar   
    21   10   11 ar   
    22   10   76 1    
    23   11   12 ar   
    24   11   48 1    
    25   12   13 ar   
    26   12   77 1    
    27   13   14 ar   
    28   13   15 1    
    29   14   78 1    
    30   15   16 1    
    31   15   79 1    
    32   15   80 1    
    33   16   17 1    
    34   17   18 1    
    35   17   81 1    
    36   17   82 1    
    37   18   19 1    
    38   18   22 1    
    39   18   83 1    
    40   19   20 am   BACKBONE|DICT|INTERRES
    41   19   21 2    
    42   20   84 1    
    43   20   85 1    
    44   22   23 am   BACKBONE|DICT|INTERRES
    45   22   86 1    
    46   23   24 2    
    47   23   25 1    
    48   25   26 1    
    49   25   27 1    
    50   25   87 1    
    51   26   88 1    
    52   26   89 1    
    53   26   90 1    
    54   27   28 am   BACKBONE|DICT|INTERRES
    55   27   91 1    
    56   28   29 2    
    57   28   30 1    
    58   30   31 1    
    59   30   32 1    
    60   30   92 1    
    61   31   93 1    
    62   31   94 1    
    63   31   95 1    
    64   32   33 am   BACKBONE|DICT|INTERRES
    65   32   96 1    
    66   33   34 2    
    67   33   35 1    
    68   35   36 1    
    69   35   37 1    
    70   35   97 1    
    71   36   98 1    
    72   36   99 1    
    73   36  100 1    
    74   37   38 am   BACKBONE|DICT|INTERRES
    75   37  101 1    
    76   38   39 2    
    77   38   40 1    
    78   40   41 1    
    79   40   42 1    
    80   40  102 1    
    81   41  103 1    
    82   41  104 1    
    83   41  105 1    
    84   42   43 am   BACKBONE|DICT|INTERRES
    85   42  106 1    
    86   43   44 2    
    87   43   45 1    
    88   45   46 1    
    89   45   49 1    
    90   45  107 1    
    91   46   47 1    
    92   46  108 1    
    93   46  109 1    
    94   47   48 1    
    95   48  110 1    
    96   48  111 1    
    97   49   50 am   BACKBONE|DICT|INTERRES
    98   49  112 1    
    99   50   51 2    
   100   50   52 1    
   101   52   53 1    
   102   52   54 1    
   103   52  113 1    
   104   53  114 1    
   105   53  115 1    
   106   53  116 1    
   107   54   55 am   BACKBONE|DICT|INTERRES
   108   54  117 1    
   109   55   56 2    
   110   55   57 1    
   111   57   58 1    
   112   57   59 1    
   113   57  118 1    
   114   58  119 1    
   115   58  120 1    
   116   58  121 1    
   117   59   60 am   BACKBONE|DICT|INTERRES
   118   59  122 1    
   119   60   61 2    
   120   60   62 1    
   121   62   63 1    
   122   62   64 1    
   123   62  123 1    
   124   63  124 1    
   125   63  125 1    
   126   63  126 1    
   127   64   65 am   BACKBONE|DICT|INTERRES
   128   64  127 1    
   129   65   66 2    
@<TRIPOS>SUBSTRUCTURE
     1 UNK         1 GROUP             0       ****    0 ROOT    
