@<TRIPOS>MOLECULE
3R134
127   129    1
SMALL
USER_CHARGES


@<TRIPOS>ATOM
      1 CA         30.7312  -44.2464  -48.8745 C.3       0 UNK        -0.1968 
      2 C          32.0909  -44.9293  -48.8946 C.2       0 UNK         0.4852 
      3 O          32.5798  -45.3515  -47.8459 O.2       0 UNK        -0.5359 
      4 N          32.7024  -45.0427  -50.0813 N.am      1 UNK        -0.4300 
      5 CA         34.0058  -45.6838  -50.3012 C.3       1 UNK         0.0863 
      6 C6         34.6725  -45.1919  -51.6128 C.3       11 UNK        -0.0953 
      7 S7         33.6716  -45.4777  -53.1144 S.3       11 UNK        -0.2369 
      8 C8         33.1609  -43.7823  -53.5353 C.3       11 UNK         0.0226 
      9 C9         32.2101  -43.7790  -54.7223 C.ar      11 UNK        -0.0699 
     10 C10        32.7158  -43.8808  -56.0211 C.ar      11 UNK        -0.0804 
     11 C11        31.8515  -43.9064  -57.1196 C.ar      11 UNK        -0.0871 
     12 C12        30.4727  -43.8181  -56.9107 C.ar      11 UNK        -0.1008 
     13 C13        29.9527  -43.7147  -55.6178 C.ar      11 UNK        -0.0735 
     14 C14        30.8279  -43.6887  -54.5264 C.ar      11 UNK        -0.0945 
     15 C15        28.4469  -43.7070  -55.3939 C.3       11 UNK         0.0169 
     16 S16        27.6961  -42.0755  -55.6873 S.3       11 UNK        -0.2669 
     17 C17        27.2073  -42.1725  -57.4470 C.3       11 UNK        -0.0850 
     18 CA         25.6878  -42.4669  -57.6299 C.3       10 UNK         0.0855 
     19 C          25.1790  -42.1763  -59.0769 C.2       10 UNK         0.5543 
     20 N          24.1666  -42.8778  -59.5718 N.am      10 UNK        -0.7343 
     21 O          25.6800  -41.2784  -59.7498 O.2       10 UNK        -0.5027 
     22 N          25.2932  -43.7798  -57.0796 N.am      10 UNK        -0.4495 
     23 C          25.6602  -44.9812  -57.5492 C.2       10 UNK         0.4903 
     24 O          26.3584  -45.1401  -58.5519 O.2       10 UNK        -0.4860 
     25 CA         25.1820  -46.1866  -56.7164 C.3       9 UNK         0.0227 
     26 CB         23.6419  -46.2971  -56.6827 C.3       9 UNK        -0.1964 
     27 N          25.8069  -47.4572  -57.1093 N.am      9 UNK        -0.4231 
     28 C          25.6055  -48.1862  -58.2194 C.2       9 UNK         0.5014 
     29 O          24.7774  -47.9069  -59.0883 O.2       9 UNK        -0.5270 
     30 CA         26.4600  -49.4592  -58.4086 C.3       8 UNK         0.0284 
     31 CB         27.4423  -49.2800  -59.5788 C.3       8 UNK        -0.1977 
     32 N          27.2119  -49.8662  -57.2176 N.am      8 UNK        -0.4342 
     33 C          26.6815  -50.4153  -56.1161 C.2       8 UNK         0.5039 
     34 O          25.4930  -50.7182  -56.0065 O.2       8 UNK        -0.5547 
     35 CA         27.6278  -50.6200  -54.9168 C.3       7 UNK         0.0281 
     36 CB         28.3200  -51.9896  -54.9932 C.3       7 UNK        -0.1963 
     37 N          28.6356  -49.5603  -54.7899 N.am      7 UNK        -0.4444 
     38 C          28.3526  -48.2668  -54.5764 C.2       7 UNK         0.5104 
     39 O          27.2130  -47.8302  -54.4190 O.2       7 UNK        -0.5100 
     40 CA         29.5301  -47.2841  -54.5979 C.3       6 UNK         0.0396 
     41 CB         30.2261  -47.2246  -53.2303 C.3       6 UNK        -0.1801 
     42 N          30.4886  -47.5944  -55.6626 N.am      6 UNK        -0.4747 
     43 C          30.2374  -47.4072  -56.9696 C.2       6 UNK         0.5012 
     44 O          29.1918  -46.9144  -57.3910 O.2       6 UNK        -0.5003 
     45 CA         31.2912  -47.9198  -57.9793 C.3       5 UNK         0.0782 
     46 C46        32.3941  -46.8748  -58.2815 C.3       11 UNK        -0.0868 
     47 S47        31.8121  -45.5419  -59.3834 S.3       11 UNK        -0.2515 
     48 C48        32.4084  -44.0437  -58.5306 C.3       11 UNK         0.0199 
     49 N          31.8810  -49.1924  -57.5588 N.am      5 UNK        -0.4607 
     50 C          31.2140  -50.3492  -57.4481 C.2       4 UNK         0.5031 
     51 O          30.0322  -50.4875  -57.7590 O.2       4 UNK        -0.5119 
     52 CA         31.9828  -51.5326  -56.8281 C.3       4 UNK         0.0263 
     53 CB         32.6836  -52.3516  -57.9230 C.3       4 UNK        -0.1967 
     54 N          32.9643  -51.1178  -55.8159 N.am      4 UNK        -0.4237 
     55 C          32.6557  -50.4400  -54.7013 C.2       3 UNK         0.4908 
     56 O          31.4981  -50.1542  -54.3843 O.2       3 UNK        -0.5102 
     57 CA         33.8393  -49.9230  -53.8654 C.3       3 UNK         0.0241 
     58 CB         34.6096  -48.8360  -54.6376 C.3       3 UNK        -0.1971 
     59 N          33.3856  -49.3472  -52.6000 N.am      3 UNK        -0.4139 
     60 C          33.0279  -50.0462  -51.5154 C.2       2 UNK         0.5016 
     61 O          33.1360  -51.2712  -51.4294 O.2       2 UNK        -0.5319 
     62 CA         32.4288  -49.2461  -50.3382 C.3       2 UNK         0.0286 
     63 CB         32.7692  -49.8671  -48.9662 C.3       2 UNK        -0.1963 
     64 N          32.7433  -47.8076  -50.3581 N.am      2 UNK        -0.4790 
     65 C          33.9498  -47.2281  -50.2296 C.2       1 UNK         0.5024 
     66 O          34.9976  -47.8563  -50.0743 O.2       1 UNK        -0.4888 
     67 H67        30.7627  -43.3682  -48.2301 H         1 UNK         0.0892 
     68 H68        29.9750  -44.9275  -48.4851 H         1 UNK         0.0892 
     69 H69        30.4193  -43.9258  -49.8684 H         1 UNK         0.0892 
     70 H70        32.2568  -44.6762  -50.9096 H         1 UNK         0.3107 
     71 H71        34.6594  -45.3757  -49.4819 H         1 UNK         0.0773 
     72 H72        34.8947  -44.1271  -51.5283 H         1 UNK         0.0680 
     73 H73        35.6413  -45.6751  -51.7534 H         1 UNK         0.0680 
     74 H74        34.0446  -43.1858  -53.7673 H         1 UNK         0.0650 
     75 H75        32.6892  -43.3142  -52.6703 H         1 UNK         0.0650 
     76 H76        33.7841  -43.9577  -56.1710 H         1 UNK         0.1397 
     77 H77        29.8055  -43.8711  -57.7586 H         1 UNK         0.1363 
     78 H78        30.4314  -43.6225  -53.5227 H         1 UNK         0.1355 
     79 H79        27.9835  -44.4605  -56.0300 H         1 UNK         0.0707 
     80 H80        28.2212  -44.0048  -54.3689 H         1 UNK         0.0707 
     81 H81        27.8059  -42.9127  -57.9762 H         1 UNK         0.1034 
     82 H82        27.4684  -41.2108  -57.8919 H         1 UNK         0.1034 
     83 H83        25.1524  -41.7368  -57.0219 H         1 UNK         0.0482 
     84 H84        23.7462  -43.6155  -59.0302 H         1 UNK         0.3460 
     85 H85        23.8339  -42.6785  -60.5020 H         1 UNK         0.3460 
     86 H86        24.7140  -43.7401  -56.2534 H         1 UNK         0.2989 
     87 H87        25.5220  -46.0089  -55.6951 H         1 UNK         0.0559 
     88 H88        23.3206  -47.1809  -56.1313 H         1 UNK         0.0848 
     89 H89        23.2139  -46.3539  -57.6840 H         1 UNK         0.0848 
     90 H90        23.1924  -45.4342  -56.1908 H         1 UNK         0.0848 
     91 H91        26.5244  -47.7798  -56.4712 H         1 UNK         0.3144 
     92 H92        25.7745  -50.2695  -58.6649 H         1 UNK         0.0727 
     93 H93        28.0111  -50.1913  -59.7647 H         1 UNK         0.0790 
     94 H94        28.1512  -48.4740  -59.3876 H         1 UNK         0.0790 
     95 H95        26.9129  -49.0351  -60.5005 H         1 UNK         0.0790 
     96 H96        28.2194  -49.7422  -57.2531 H         1 UNK         0.3215 
     97 H97        27.0185  -50.5978  -54.0107 H         1 UNK         0.0863 
     98 H98        28.9945  -52.1445  -54.1507 H         1 UNK         0.0808 
     99 H99        28.8962  -52.1004  -55.9111 H         1 UNK         0.0808 
    100 H100       27.5852  -52.7956  -54.9746 H         1 UNK         0.0808 
    101 H101       29.6132  -49.8322  -54.8528 H         1 UNK         0.3118 
    102 H102       29.1188  -46.2959  -54.7963 H         1 UNK         0.0546 
    103 H103       30.6731  -48.1778  -52.9528 H         1 UNK         0.0828 
    104 H104       29.5150  -46.9606  -52.4465 H         1 UNK         0.0828 
    105 H105       31.0051  -46.4660  -53.2233 H         1 UNK         0.0828 
    106 H106       31.3286  -48.0830  -55.3883 H         1 UNK         0.3005 
    107 H107       30.7560  -48.1234  -58.9103 H         1 UNK         0.1257 
    108 H108       32.8125  -46.4699  -57.3587 H         1 UNK         0.0775 
    109 H109       33.2287  -47.3528  -58.7970 H         1 UNK         0.0775 
    110 H110       33.4994  -44.0559  -58.5207 H         1 UNK         0.0840 
    111 H111       32.1178  -43.1679  -59.1124 H         1 UNK         0.0840 
    112 H112       32.8536  -49.1739  -57.2924 H         1 UNK         0.2987 
    113 H113       31.2533  -52.1768  -56.3341 H         1 UNK         0.0785 
    114 H114       31.9682  -52.6884  -58.6749 H         1 UNK         0.0798 
    115 H115       33.1589  -53.2418  -57.5105 H         1 UNK         0.0798 
    116 H116       33.4484  -51.7695  -58.4389 H         1 UNK         0.0798 
    117 H117       33.9340  -51.3217  -56.0125 H         1 UNK         0.3079 
    118 H118       34.5101  -50.7590  -53.6563 H         1 UNK         0.0794 
    119 H119       35.0601  -49.2344  -55.5472 H         1 UNK         0.0786 
    120 H120       35.4210  -48.4246  -54.0363 H         1 UNK         0.0786 
    121 H121       33.9617  -48.0078  -54.9287 H         1 UNK         0.0786 
    122 H122       33.2514  -48.3474  -52.5808 H         1 UNK         0.3032 
    123 H123       31.3472  -49.3179  -50.4650 H         1 UNK         0.1094 
    124 H124       32.3261  -49.2953  -48.1508 H         1 UNK         0.0794 
    125 H125       32.3853  -50.8853  -48.8907 H         1 UNK         0.0794 
    126 H126       33.8452  -49.9148  -48.7974 H         1 UNK         0.0794 
    127 H127       31.9521  -47.1910  -50.4776 H         1 UNK         0.3016 
@<TRIPOS>BOND
     1    1    2 1    
     2    1   67 1    
     3    1   68 1    
     4    1   69 1    
     5    2    3 2    
     6    2    4 am   BACKBONE|DICT|INTERRES
     7    4    5 1    
     8    4   70 1    
     9    5    6 1    
    10    5   65 1    
    11    5   71 1    
    12    6    7 1    
    13    6   72 1    
    14    6   73 1    
    15    7    8 1    
    16    8    9 1    
    17    8   74 1    
    18    8   75 1    
    19    9   10 ar   
    20    9   14 ar   
    21   10   11 ar   
    22   10   76 1    
    23   11   12 ar   
    24   11   48 1    
    25   12   13 ar   
    26   12   77 1    
    27   13   14 ar   
    28   13   15 1    
    29   14   78 1    
    30   15   16 1    
    31   15   79 1    
    32   15   80 1    
    33   16   17 1    
    34   17   18 1    
    35   17   81 1    
    36   17   82 1    
    37   18   19 1    
    38   18   22 1    
    39   18   83 1    
    40   19   20 am   BACKBONE|DICT|INTERRES
    41   19   21 2    
    42   20   84 1    
    43   20   85 1    
    44   22   23 am   BACKBONE|DICT|INTERRES
    45   22   86 1    
    46   23   24 2    
    47   23   25 1    
    48   25   26 1    
    49   25   27 1    
    50   25   87 1    
    51   26   88 1    
    52   26   89 1    
    53   26   90 1    
    54   27   28 am   BACKBONE|DICT|INTERRES
    55   27   91 1    
    56   28   29 2    
    57   28   30 1    
    58   30   31 1    
    59   30   32 1    
    60   30   92 1    
    61   31   93 1    
    62   31   94 1    
    63   31   95 1    
    64   32   33 am   BACKBONE|DICT|INTERRES
    65   32   96 1    
    66   33   34 2    
    67   33   35 1    
    68   35   36 1    
    69   35   37 1    
    70   35   97 1    
    71   36   98 1    
    72   36   99 1    
    73   36  100 1    
    74   37   38 am   BACKBONE|DICT|INTERRES
    75   37  101 1    
    76   38   39 2    
    77   38   40 1    
    78   40   41 1    
    79   40   42 1    
    80   40  102 1    
    81   41  103 1    
    82   41  104 1    
    83   41  105 1    
    84   42   43 am   BACKBONE|DICT|INTERRES
    85   42  106 1    
    86   43   44 2    
    87   43   45 1    
    88   45   46 1    
    89   45   49 1    
    90   45  107 1    
    91   46   47 1    
    92   46  108 1    
    93   46  109 1    
    94   47   48 1    
    95   48  110 1    
    96   48  111 1    
    97   49   50 am   BACKBONE|DICT|INTERRES
    98   49  112 1    
    99   50   51 2    
   100   50   52 1    
   101   52   53 1    
   102   52   54 1    
   103   52  113 1    
   104   53  114 1    
   105   53  115 1    
   106   53  116 1    
   107   54   55 am   BACKBONE|DICT|INTERRES
   108   54  117 1    
   109   55   56 2    
   110   55   57 1    
   111   57   58 1    
   112   57   59 1    
   113   57  118 1    
   114   58  119 1    
   115   58  120 1    
   116   58  121 1    
   117   59   60 am   BACKBONE|DICT|INTERRES
   118   59  122 1    
   119   60   61 2    
   120   60   62 1    
   121   62   63 1    
   122   62   64 1    
   123   62  123 1    
   124   63  124 1    
   125   63  125 1    
   126   63  126 1    
   127   64   65 am   BACKBONE|DICT|INTERRES
   128   64  127 1    
   129   65   66 2    
@<TRIPOS>SUBSTRUCTURE
     1 UNK         1 GROUP             0       ****    0 ROOT    
