@<TRIPOS>MOLECULE
3R134
127   129    1
SMALL
USER_CHARGES


@<TRIPOS>ATOM
      1 CA         36.6178  -48.4427  -54.0647 C.3       0 UNK        -0.1968 
      2 C          36.9950  -47.2943  -53.1319 C.2       0 UNK         0.4852 
      3 O          37.9546  -47.4241  -52.3740 O.2       0 UNK        -0.5359 
      4 N          36.2846  -46.1572  -53.1467 N.am      1 UNK        -0.4300 
      5 CA         35.0952  -45.8616  -53.9567 C.3       1 UNK         0.0863 
      6 C6         34.9837  -44.3489  -54.2665 C.3       11 UNK        -0.0953 
      7 S7         34.8570  -43.2895  -52.7817 S.3       11 UNK        -0.2369 
      8 C8         33.9242  -41.8637  -53.4247 C.3       11 UNK         0.0226 
      9 C9         32.4944  -42.2275  -53.8009 C.ar      11 UNK        -0.0699 
     10 C10        31.5562  -42.5125  -52.8042 C.ar      11 UNK        -0.0804 
     11 C11        30.2391  -42.8451  -53.1377 C.ar      11 UNK        -0.0871 
     12 C12        29.8617  -42.8666  -54.4847 C.ar      11 UNK        -0.1008 
     13 C13        30.7950  -42.6033  -55.4902 C.ar      11 UNK        -0.0735 
     14 C14        32.1085  -42.2772  -55.1441 C.ar      11 UNK        -0.0945 
     15 C15        30.3796  -42.6994  -56.9476 C.3       11 UNK         0.0169 
     16 S16        30.3060  -44.4398  -57.4655 S.3       11 UNK        -0.2669 
     17 C17        29.5115  -44.2902  -59.1008 C.3       11 UNK        -0.0850 
     18 CA         27.9724  -44.0914  -59.0303 C.3       10 UNK         0.0855 
     19 C          27.3565  -44.0276  -60.4601 C.2       10 UNK         0.5543 
     20 N          26.4494  -44.9186  -60.8453 N.am      10 UNK        -0.7343 
     21 O          27.7106  -43.1440  -61.2366 O.2       10 UNK        -0.5027 
     22 N          27.3325  -45.0613  -58.1300 N.am      10 UNK        -0.4495 
     23 C          26.1163  -44.9256  -57.5871 C.2       10 UNK         0.4903 
     24 O          25.4201  -43.9165  -57.7082 O.2       10 UNK        -0.4860 
     25 CA         25.5945  -46.1341  -56.7836 C.3       9 UNK         0.0227 
     26 CB         24.0568  -46.1528  -56.6556 C.3       9 UNK        -0.1964 
     27 N          26.0934  -47.4228  -57.2906 N.am      9 UNK        -0.4231 
     28 C          25.9305  -47.9091  -58.5318 C.2       9 UNK         0.5014 
     29 O          25.2785  -47.3383  -59.4078 O.2       9 UNK        -0.5270 
     30 CA         26.6527  -49.2136  -58.8953 C.3       8 UNK         0.0284 
     31 CB         27.8556  -48.9062  -59.8059 C.3       8 UNK        -0.1977 
     32 N          27.1324  -49.9606  -57.7282 N.am      8 UNK        -0.4342 
     33 C          26.6784  -51.1672  -57.3675 C.2       8 UNK         0.5039 
     34 O          25.7078  -51.7203  -57.8874 O.2       8 UNK        -0.5547 
     35 CA         27.4666  -51.9173  -56.2837 C.3       7 UNK         0.0281 
     36 CB         28.7579  -52.5052  -56.8771 C.3       7 UNK        -0.1963 
     37 N          27.7887  -51.1071  -55.1072 N.am      7 UNK        -0.4444 
     38 C          26.9084  -50.8154  -54.1396 C.2       7 UNK         0.5104 
     39 O          25.7114  -51.1001  -54.1932 O.2       7 UNK        -0.5100 
     40 CA         27.4581  -50.1204  -52.8810 C.3       6 UNK         0.0396 
     41 CB         28.2549  -51.1080  -52.0132 C.3       6 UNK        -0.1801 
     42 N          28.2900  -48.9582  -53.1869 N.am      6 UNK        -0.4747 
     43 C          27.8263  -47.8101  -53.6991 C.2       6 UNK         0.5012 
     44 O          26.6361  -47.6011  -53.9291 O.2       6 UNK        -0.5003 
     45 CA         28.8767  -46.7343  -54.0519 C.3       5 UNK         0.0782 
     46 C46        29.3082  -45.9326  -52.7965 C.3       11 UNK        -0.0868 
     47 S47        28.1354  -44.5856  -52.4189 S.3       11 UNK        -0.2515 
     48 C48        29.2440  -43.1848  -52.0305 C.3       11 UNK         0.0199 
     49 N          30.0247  -47.3083  -54.7605 N.am      5 UNK        -0.4607 
     50 C          29.9547  -47.9770  -55.9203 C.2       4 UNK         0.5031 
     51 O          28.9191  -48.1168  -56.5709 O.2       4 UNK        -0.5119 
     52 CA         31.2400  -48.6629  -56.4060 C.3       4 UNK         0.0263 
     53 CB         32.1060  -47.6938  -57.2253 C.3       4 UNK        -0.1967 
     54 N          32.0159  -49.2177  -55.2936 N.am      4 UNK        -0.4237 
     55 C          31.6380  -50.2844  -54.5727 C.2       3 UNK         0.4908 
     56 O          30.6253  -50.9416  -54.8068 O.2       3 UNK        -0.5102 
     57 CA         32.5059  -50.6533  -53.3575 C.3       3 UNK         0.0241 
     58 CB         33.7394  -51.4600  -53.7939 C.3       3 UNK        -0.1971 
     59 N          32.9249  -49.4816  -52.5845 N.am      3 UNK        -0.4139 
     60 C          32.0857  -48.6562  -51.9425 C.2       2 UNK         0.5016 
     61 O          30.8704  -48.8346  -51.8743 O.2       2 UNK        -0.5319 
     62 CA         32.6979  -47.3914  -51.3146 C.3       2 UNK         0.0286 
     63 CB         33.1248  -47.6633  -49.8641 C.3       2 UNK        -0.1963 
     64 N          33.8348  -46.8402  -52.0637 N.am      2 UNK        -0.4790 
     65 C          33.7934  -46.4231  -53.3399 C.2       1 UNK         0.5024 
     66 O          32.7853  -46.5072  -54.0405 O.2       1 UNK        -0.4888 
     67 H67        37.1665  -49.3461  -53.7985 H         1 UNK         0.0892 
     68 H68        36.8693  -48.1925  -55.0951 H         1 UNK         0.0892 
     69 H69        35.5569  -48.6763  -54.0111 H         1 UNK         0.0892 
     70 H70        36.5677  -45.4061  -52.5322 H         1 UNK         0.3107 
     71 H71        35.2064  -46.3588  -54.9219 H         1 UNK         0.0773 
     72 H72        34.1319  -44.1723  -54.9242 H         1 UNK         0.0680 
     73 H73        35.8588  -44.0256  -54.8321 H         1 UNK         0.0680 
     74 H74        33.9056  -41.0839  -52.6621 H         1 UNK         0.0650 
     75 H75        34.4577  -41.4434  -54.2787 H         1 UNK         0.0650 
     76 H76        31.8610  -42.4850  -51.7668 H         1 UNK         0.1397 
     77 H77        28.8471  -43.1218  -54.7584 H         1 UNK         0.1363 
     78 H78        32.8328  -42.0732  -55.9208 H         1 UNK         0.1355 
     79 H79        29.4033  -42.2307  -57.0766 H         1 UNK         0.0707 
     80 H80        31.0759  -42.1567  -57.5888 H         1 UNK         0.0707 
     81 H81        29.7473  -45.1956  -59.6634 H         1 UNK         0.1034 
     82 H82        29.9811  -43.4686  -59.6454 H         1 UNK         0.1034 
     83 H83        27.7965  -43.1044  -58.5995 H         1 UNK         0.0482 
     84 H84        26.1275  -45.6478  -60.2191 H         1 UNK         0.3460 
     85 H85        26.0639  -44.8542  -61.7738 H         1 UNK         0.3460 
     86 H86        27.8453  -45.9146  -57.9614 H         1 UNK         0.2989 
     87 H87        26.0042  -46.0093  -55.7830 H         1 UNK         0.0559 
     88 H88        23.7206  -47.0032  -56.0625 H         1 UNK         0.0848 
     89 H89        23.5690  -46.2072  -57.6292 H         1 UNK         0.0848 
     90 H90        23.6937  -45.2516  -56.1602 H         1 UNK         0.0848 
     91 H91        26.7004  -47.9334  -56.6615 H         1 UNK         0.3144 
     92 H92        25.9443  -49.8135  -59.4703 H         1 UNK         0.0727 
     93 H93        28.3478  -49.8223  -60.1327 H         1 UNK         0.0790 
     94 H94        28.5997  -48.2884  -59.3016 H         1 UNK         0.0790 
     95 H95        27.5424  -48.3708  -60.7036 H         1 UNK         0.0790 
     96 H96        27.9135  -49.5456  -57.2242 H         1 UNK         0.3215 
     97 H97        26.8486  -52.7560  -55.9545 H         1 UNK         0.0863 
     98 H98        29.2846  -53.1204  -56.1473 H         1 UNK         0.0808 
     99 H99        29.4429  -51.7249  -57.2111 H         1 UNK         0.0808 
    100 H100       28.5402  -53.1389  -57.7379 H         1 UNK         0.0808 
    101 H101       28.7711  -50.8782  -54.9652 H         1 UNK         0.3118 
    102 H102       26.6050  -49.7752  -52.2929 H         1 UNK         0.0546 
    103 H103       27.6497  -51.9777  -51.7544 H         1 UNK         0.0828 
    104 H104       28.5739  -50.6447  -51.0793 H         1 UNK         0.0828 
    105 H105       29.1471  -51.4708  -52.5245 H         1 UNK         0.0828 
    106 H106       29.2796  -49.0256  -52.9612 H         1 UNK         0.3005 
    107 H107       28.4105  -46.0461  -54.7609 H         1 UNK         0.1257 
    108 H108       30.2972  -45.5023  -52.9574 H         1 UNK         0.0775 
    109 H109       29.4094  -46.5712  -51.9173 H         1 UNK         0.0775 
    110 H110       28.6356  -42.3031  -51.8261 H         1 UNK         0.0840 
    111 H111       29.7706  -43.4174  -51.1035 H         1 UNK         0.0840 
    112 H112       30.9357  -47.1856  -54.3313 H         1 UNK         0.2987 
    113 H113       30.9475  -49.4877  -57.0595 H         1 UNK         0.0785 
    114 H114       32.4098  -46.8236  -56.6427 H         1 UNK         0.0798 
    115 H115       31.5557  -47.3239  -58.0915 H         1 UNK         0.0798 
    116 H116       33.0064  -48.1817  -57.5984 H         1 UNK         0.0798 
    117 H117       32.8213  -48.6873  -54.9964 H         1 UNK         0.3079 
    118 H118       31.9014  -51.2835  -52.7014 H         1 UNK         0.0794 
    119 H119       34.3927  -50.8857  -54.4515 H         1 UNK         0.0786 
    120 H120       33.4422  -52.3586  -54.3367 H         1 UNK         0.0786 
    121 H121       34.3269  -51.7837  -52.9344 H         1 UNK         0.0786 
    122 H122       33.9109  -49.2727  -52.5561 H         1 UNK         0.3032 
    123 H123       31.9163  -46.6290  -51.3018 H         1 UNK         0.1094 
    124 H124       33.9340  -48.3925  -49.8091 H         1 UNK         0.0794 
    125 H125       33.4600  -46.7504  -49.3712 H         1 UNK         0.0794 
    126 H126       32.2913  -48.0562  -49.2796 H         1 UNK         0.0794 
    127 H127       34.7018  -46.7286  -51.5573 H         1 UNK         0.3016 
@<TRIPOS>BOND
     1    1    2 1    
     2    1   67 1    
     3    1   68 1    
     4    1   69 1    
     5    2    3 2    
     6    2    4 am   BACKBONE|DICT|INTERRES
     7    4    5 1    
     8    4   70 1    
     9    5    6 1    
    10    5   65 1    
    11    5   71 1    
    12    6    7 1    
    13    6   72 1    
    14    6   73 1    
    15    7    8 1    
    16    8    9 1    
    17    8   74 1    
    18    8   75 1    
    19    9   10 ar   
    20    9   14 ar   
    21   10   11 ar   
    22   10   76 1    
    23   11   12 ar   
    24   11   48 1    
    25   12   13 ar   
    26   12   77 1    
    27   13   14 ar   
    28   13   15 1    
    29   14   78 1    
    30   15   16 1    
    31   15   79 1    
    32   15   80 1    
    33   16   17 1    
    34   17   18 1    
    35   17   81 1    
    36   17   82 1    
    37   18   19 1    
    38   18   22 1    
    39   18   83 1    
    40   19   20 am   BACKBONE|DICT|INTERRES
    41   19   21 2    
    42   20   84 1    
    43   20   85 1    
    44   22   23 am   BACKBONE|DICT|INTERRES
    45   22   86 1    
    46   23   24 2    
    47   23   25 1    
    48   25   26 1    
    49   25   27 1    
    50   25   87 1    
    51   26   88 1    
    52   26   89 1    
    53   26   90 1    
    54   27   28 am   BACKBONE|DICT|INTERRES
    55   27   91 1    
    56   28   29 2    
    57   28   30 1    
    58   30   31 1    
    59   30   32 1    
    60   30   92 1    
    61   31   93 1    
    62   31   94 1    
    63   31   95 1    
    64   32   33 am   BACKBONE|DICT|INTERRES
    65   32   96 1    
    66   33   34 2    
    67   33   35 1    
    68   35   36 1    
    69   35   37 1    
    70   35   97 1    
    71   36   98 1    
    72   36   99 1    
    73   36  100 1    
    74   37   38 am   BACKBONE|DICT|INTERRES
    75   37  101 1    
    76   38   39 2    
    77   38   40 1    
    78   40   41 1    
    79   40   42 1    
    80   40  102 1    
    81   41  103 1    
    82   41  104 1    
    83   41  105 1    
    84   42   43 am   BACKBONE|DICT|INTERRES
    85   42  106 1    
    86   43   44 2    
    87   43   45 1    
    88   45   46 1    
    89   45   49 1    
    90   45  107 1    
    91   46   47 1    
    92   46  108 1    
    93   46  109 1    
    94   47   48 1    
    95   48  110 1    
    96   48  111 1    
    97   49   50 am   BACKBONE|DICT|INTERRES
    98   49  112 1    
    99   50   51 2    
   100   50   52 1    
   101   52   53 1    
   102   52   54 1    
   103   52  113 1    
   104   53  114 1    
   105   53  115 1    
   106   53  116 1    
   107   54   55 am   BACKBONE|DICT|INTERRES
   108   54  117 1    
   109   55   56 2    
   110   55   57 1    
   111   57   58 1    
   112   57   59 1    
   113   57  118 1    
   114   58  119 1    
   115   58  120 1    
   116   58  121 1    
   117   59   60 am   BACKBONE|DICT|INTERRES
   118   59  122 1    
   119   60   61 2    
   120   60   62 1    
   121   62   63 1    
   122   62   64 1    
   123   62  123 1    
   124   63  124 1    
   125   63  125 1    
   126   63  126 1    
   127   64   65 am   BACKBONE|DICT|INTERRES
   128   64  127 1    
   129   65   66 2    
@<TRIPOS>SUBSTRUCTURE
     1 UNK         1 GROUP             0       ****    0 ROOT    
