@<TRIPOS>MOLECULE
3R134
127   129    1
SMALL
USER_CHARGES


@<TRIPOS>ATOM
      1 CA         34.0853  -46.7615  -50.5737 C.3       0 UNK        -0.1968 
      2 C          35.2251  -45.7550  -50.4233 C.2       0 UNK         0.4852 
      3 O          35.6004  -45.4525  -49.2911 O.2       0 UNK        -0.5359 
      4 N          35.8057  -45.1936  -51.4968 N.am      1 UNK        -0.4300 
      5 CA         35.5669  -45.4258  -52.9291 C.3       1 UNK         0.0863 
      6 C6         34.0840  -45.2130  -53.3447 C.3       11 UNK        -0.0953 
      7 S7         33.8672  -44.7014  -55.0816 S.3       11 UNK        -0.2369 
      8 C8         32.1852  -45.3147  -55.4142 C.3       11 UNK         0.0226 
      9 C9         31.1258  -44.4224  -54.7827 C.ar      11 UNK        -0.0699 
     10 C10        30.7290  -44.6227  -53.4562 C.ar      11 UNK        -0.0804 
     11 C11        29.7623  -43.7977  -52.8684 C.ar      11 UNK        -0.0871 
     12 C12        29.1901  -42.7723  -53.6265 C.ar      11 UNK        -0.1008 
     13 C13        29.5815  -42.5572  -54.9505 C.ar      11 UNK        -0.0735 
     14 C14        30.5494  -43.3865  -55.5247 C.ar      11 UNK        -0.0945 
     15 C15        28.9814  -41.3999  -55.7352 C.3       11 UNK         0.0169 
     16 S16        27.4490  -41.8831  -56.5872 S.3       11 UNK        -0.2669 
     17 C17        28.1038  -42.3929  -58.2110 C.3       11 UNK        -0.0850 
     18 CA         27.0512  -43.1395  -59.0694 C.3       10 UNK         0.0855 
     19 C          27.5621  -43.3171  -60.5311 C.2       10 UNK         0.5543 
     20 N          27.7997  -44.5269  -61.0240 N.am      10 UNK        -0.7343 
     21 O          27.7435  -42.3274  -61.2361 O.2       10 UNK        -0.5027 
     22 N          26.6103  -44.3801  -58.4140 N.am      10 UNK        -0.4495 
     23 C          25.5172  -45.0801  -58.7408 C.2       10 UNK         0.4903 
     24 O          24.6802  -44.6958  -59.5594 O.2       10 UNK        -0.4860 
     25 CA         25.3420  -46.4450  -58.0409 C.3       9 UNK         0.0227 
     26 CB         24.4429  -47.4102  -58.8408 C.3       9 UNK        -0.1964 
     27 N          26.6078  -47.1075  -57.6938 N.am      9 UNK        -0.4231 
     28 C          27.6180  -47.4223  -58.5221 C.2       9 UNK         0.5014 
     29 O          27.6484  -47.1331  -59.7190 O.2       9 UNK        -0.5270 
     30 CA         28.8011  -48.1847  -57.9058 C.3       8 UNK         0.0284 
     31 CB         29.6934  -47.2368  -57.0872 C.3       8 UNK        -0.1977 
     32 N          28.3678  -49.3002  -57.0649 N.am      8 UNK        -0.4342 
     33 C          27.7167  -50.3891  -57.4989 C.2       8 UNK         0.5039 
     34 O          27.4675  -50.6208  -58.6825 O.2       8 UNK        -0.5547 
     35 CA         27.2487  -51.3804  -56.4235 C.3       7 UNK         0.0281 
     36 CB         28.3975  -52.3075  -55.9908 C.3       7 UNK        -0.1963 
     37 N          26.7047  -50.6778  -55.2593 N.am      7 UNK        -0.4444 
     38 C          25.4620  -50.1786  -55.1943 C.2       7 UNK         0.5104 
     39 O          24.6180  -50.3266  -56.0782 O.2       7 UNK        -0.5100 
     40 CA         25.0864  -49.3809  -53.9314 C.3       6 UNK         0.0396 
     41 CB         24.3824  -50.2924  -52.9138 C.3       6 UNK        -0.1801 
     42 N          26.2301  -48.7310  -53.2855 N.am      6 UNK        -0.4747 
     43 C          26.8880  -47.6741  -53.7841 C.2       6 UNK         0.5012 
     44 O          26.5959  -47.1239  -54.8458 O.2       6 UNK        -0.5003 
     45 CA         28.1199  -47.1955  -52.9908 C.3       5 UNK         0.0782 
     46 C46        27.7082  -46.2068  -51.8725 C.3       11 UNK        -0.0868 
     47 S47        29.1316  -45.6723  -50.8602 S.3       11 UNK        -0.2515 
     48 C48        29.3672  -43.9488  -51.4014 C.3       11 UNK         0.0199 
     49 N          28.9357  -48.3039  -52.4756 N.am      5 UNK        -0.4607 
     50 C          29.5113  -49.2464  -53.2273 C.2       4 UNK         0.5031 
     51 O          29.2975  -49.3852  -54.4326 O.2       4 UNK        -0.5119 
     52 CA         30.4648  -50.2164  -52.5134 C.3       4 UNK         0.0263 
     53 CB         29.7197  -51.5009  -52.1168 C.3       4 UNK        -0.1967 
     54 N          31.6008  -50.5580  -53.3725 N.am      4 UNK        -0.4237 
     55 C          32.5141  -49.6734  -53.7933 C.2       3 UNK         0.4908 
     56 O          32.5715  -48.5040  -53.4022 O.2       3 UNK        -0.5102 
     57 CA         33.5123  -50.1718  -54.8439 C.3       3 UNK         0.0241 
     58 CB         32.8192  -50.4236  -56.1972 C.3       3 UNK        -0.1971 
     59 N          34.5457  -49.1560  -55.0069 N.am      3 UNK        -0.4139 
     60 C          35.8188  -49.3660  -55.3533 C.2       2 UNK         0.5016 
     61 O          36.2800  -50.4758  -55.6236 O.2       2 UNK        -0.5319 
     62 CA         36.7386  -48.1319  -55.4233 C.3       2 UNK         0.0286 
     63 CB         37.0349  -47.7688  -56.8880 C.3       2 UNK        -0.1963 
     64 N          36.1954  -46.9482  -54.7459 N.am      2 UNK        -0.4790 
     65 C          36.1705  -46.7641  -53.4198 C.2       1 UNK         0.5024 
     66 O          36.6180  -47.5876  -52.6185 O.2       1 UNK        -0.4888 
     67 H67        34.2682  -47.4789  -51.3713 H         1 UNK         0.0892 
     68 H68        33.9621  -47.3316  -49.6534 H         1 UNK         0.0892 
     69 H69        33.1453  -46.2472  -50.7714 H         1 UNK         0.0892 
     70 H70        36.5662  -44.5533  -51.3163 H         1 UNK         0.3107 
     71 H71        36.1561  -44.6469  -53.4164 H         1 UNK         0.0773 
     72 H72        33.6354  -44.4280  -52.7338 H         1 UNK         0.0680 
     73 H73        33.4961  -46.1107  -53.1627 H         1 UNK         0.0680 
     74 H74        32.0803  -46.3409  -55.0590 H         1 UNK         0.0650 
     75 H75        32.0412  -45.3535  -56.4946 H         1 UNK         0.0650 
     76 H76        31.1829  -45.4152  -52.8773 H         1 UNK         0.1397 
     77 H77        28.4509  -42.1208  -53.1800 H         1 UNK         0.1363 
     78 H78        30.8666  -43.2174  -56.5442 H         1 UNK         0.1355 
     79 H79        28.7552  -40.5762  -55.0562 H         1 UNK         0.0707 
     80 H80        29.7038  -41.0057  -56.4517 H         1 UNK         0.0707 
     81 H81        28.4485  -41.4912  -58.7217 H         1 UNK         0.1034 
     82 H82        28.9855  -43.0194  -58.0686 H         1 UNK         0.1034 
     83 H83        26.1750  -42.4924  -59.1452 H         1 UNK         0.0482 
     84 H84        28.1256  -44.6128  -61.9731 H         1 UNK         0.3460 
     85 H85        27.6559  -45.3645  -60.4668 H         1 UNK         0.3460 
     86 H86        27.2327  -44.7613  -57.7180 H         1 UNK         0.2989 
     87 H87        24.8428  -46.2364  -57.0937 H         1 UNK         0.0559 
     88 H88        24.8614  -47.6277  -59.8241 H         1 UNK         0.0848 
     89 H89        23.4489  -46.9884  -58.9943 H         1 UNK         0.0848 
     90 H90        24.3136  -48.3569  -58.3154 H         1 UNK         0.0848 
     91 H91        26.7114  -47.3259  -56.7045 H         1 UNK         0.3144 
     92 H92        29.3973  -48.5959  -58.7230 H         1 UNK         0.0727 
     93 H93        30.5690  -47.7564  -56.6982 H         1 UNK         0.0790 
     94 H94        29.1612  -46.8055  -56.2386 H         1 UNK         0.0790 
     95 H95        30.0513  -46.4106  -57.7029 H         1 UNK         0.0790 
     96 H96        28.6015  -49.2444  -56.0740 H         1 UNK         0.3215 
     97 H97        26.4628  -52.0021  -56.8587 H         1 UNK         0.0863 
     98 H98        28.0673  -53.0239  -55.2385 H         1 UNK         0.0808 
     99 H99        29.2415  -51.7534  -55.5803 H         1 UNK         0.0808 
    100 H100       28.7713  -52.8802  -56.8405 H         1 UNK         0.0808 
    101 H101       27.3557  -50.4514  -54.5198 H         1 UNK         0.3118 
    102 H102       24.3820  -48.6028  -54.2335 H         1 UNK         0.0546 
    103 H103       25.0398  -51.0866  -52.5580 H         1 UNK         0.0828 
    104 H104       23.5073  -50.7693  -53.3579 H         1 UNK         0.0828 
    105 H105       24.0357  -49.7283  -52.0478 H         1 UNK         0.0828 
    106 H106       26.5511  -49.1269  -52.4133 H         1 UNK         0.3005 
    107 H107       28.7471  -46.6527  -53.7011 H         1 UNK         0.1257 
    108 H108       26.9813  -46.6672  -51.2005 H         1 UNK         0.0775 
    109 H109       27.2149  -45.3310  -52.2991 H         1 UNK         0.0775 
    110 H110       28.4532  -43.3926  -51.1869 H         1 UNK         0.0840 
    111 H111       30.1488  -43.4983  -50.7883 H         1 UNK         0.0840 
    112 H112       29.1627  -48.2527  -51.4927 H         1 UNK         0.2987 
    113 H113       30.8523  -49.7366  -51.6119 H         1 UNK         0.0785 
    114 H114       30.3749  -52.1907  -51.5843 H         1 UNK         0.0798 
    115 H115       29.3192  -52.0231  -52.9866 H         1 UNK         0.0798 
    116 H116       28.8811  -51.2790  -51.4554 H         1 UNK         0.0798 
    117 H117       31.6093  -51.4892  -53.7613 H         1 UNK         0.3079 
    118 H118       33.9615  -51.0969  -54.4763 H         1 UNK         0.0794 
    119 H119       32.0437  -51.1857  -56.1131 H         1 UNK         0.0786 
    120 H120       33.5300  -50.7701  -56.9476 H         1 UNK         0.0786 
    121 H121       32.3455  -49.5187  -56.5795 H         1 UNK         0.0786 
    122 H122       34.2590  -48.2275  -54.7245 H         1 UNK         0.3032 
    123 H123       37.6798  -48.4064  -54.9409 H         1 UNK         0.1094 
    124 H124       37.7450  -46.9445  -56.9573 H         1 UNK         0.0794 
    125 H125       37.4720  -48.6150  -57.4202 H         1 UNK         0.0794 
    126 H126       36.1296  -47.4799  -57.4236 H         1 UNK         0.0794 
    127 H127       35.7948  -46.2295  -55.3354 H         1 UNK         0.3016 
@<TRIPOS>BOND
     1    1    2 1    
     2    1   67 1    
     3    1   68 1    
     4    1   69 1    
     5    2    3 2    
     6    2    4 am   BACKBONE|DICT|INTERRES
     7    4    5 1    
     8    4   70 1    
     9    5    6 1    
    10    5   65 1    
    11    5   71 1    
    12    6    7 1    
    13    6   72 1    
    14    6   73 1    
    15    7    8 1    
    16    8    9 1    
    17    8   74 1    
    18    8   75 1    
    19    9   10 ar   
    20    9   14 ar   
    21   10   11 ar   
    22   10   76 1    
    23   11   12 ar   
    24   11   48 1    
    25   12   13 ar   
    26   12   77 1    
    27   13   14 ar   
    28   13   15 1    
    29   14   78 1    
    30   15   16 1    
    31   15   79 1    
    32   15   80 1    
    33   16   17 1    
    34   17   18 1    
    35   17   81 1    
    36   17   82 1    
    37   18   19 1    
    38   18   22 1    
    39   18   83 1    
    40   19   20 am   BACKBONE|DICT|INTERRES
    41   19   21 2    
    42   20   84 1    
    43   20   85 1    
    44   22   23 am   BACKBONE|DICT|INTERRES
    45   22   86 1    
    46   23   24 2    
    47   23   25 1    
    48   25   26 1    
    49   25   27 1    
    50   25   87 1    
    51   26   88 1    
    52   26   89 1    
    53   26   90 1    
    54   27   28 am   BACKBONE|DICT|INTERRES
    55   27   91 1    
    56   28   29 2    
    57   28   30 1    
    58   30   31 1    
    59   30   32 1    
    60   30   92 1    
    61   31   93 1    
    62   31   94 1    
    63   31   95 1    
    64   32   33 am   BACKBONE|DICT|INTERRES
    65   32   96 1    
    66   33   34 2    
    67   33   35 1    
    68   35   36 1    
    69   35   37 1    
    70   35   97 1    
    71   36   98 1    
    72   36   99 1    
    73   36  100 1    
    74   37   38 am   BACKBONE|DICT|INTERRES
    75   37  101 1    
    76   38   39 2    
    77   38   40 1    
    78   40   41 1    
    79   40   42 1    
    80   40  102 1    
    81   41  103 1    
    82   41  104 1    
    83   41  105 1    
    84   42   43 am   BACKBONE|DICT|INTERRES
    85   42  106 1    
    86   43   44 2    
    87   43   45 1    
    88   45   46 1    
    89   45   49 1    
    90   45  107 1    
    91   46   47 1    
    92   46  108 1    
    93   46  109 1    
    94   47   48 1    
    95   48  110 1    
    96   48  111 1    
    97   49   50 am   BACKBONE|DICT|INTERRES
    98   49  112 1    
    99   50   51 2    
   100   50   52 1    
   101   52   53 1    
   102   52   54 1    
   103   52  113 1    
   104   53  114 1    
   105   53  115 1    
   106   53  116 1    
   107   54   55 am   BACKBONE|DICT|INTERRES
   108   54  117 1    
   109   55   56 2    
   110   55   57 1    
   111   57   58 1    
   112   57   59 1    
   113   57  118 1    
   114   58  119 1    
   115   58  120 1    
   116   58  121 1    
   117   59   60 am   BACKBONE|DICT|INTERRES
   118   59  122 1    
   119   60   61 2    
   120   60   62 1    
   121   62   63 1    
   122   62   64 1    
   123   62  123 1    
   124   63  124 1    
   125   63  125 1    
   126   63  126 1    
   127   64   65 am   BACKBONE|DICT|INTERRES
   128   64  127 1    
   129   65   66 2    
@<TRIPOS>SUBSTRUCTURE
     1 UNK         1 GROUP             0       ****    0 ROOT    
