@<TRIPOS>MOLECULE
3R134
127   129    1
SMALL
USER_CHARGES


@<TRIPOS>ATOM
      1 CA         38.8547  -47.4861  -55.4390 C.3       0 UNK        -0.1968 
      2 C          37.3461  -47.5497  -55.2505 C.2       0 UNK         0.4852 
      3 O          36.7544  -48.6165  -55.4177 O.2       0 UNK        -0.5359 
      4 N          36.7214  -46.4169  -54.9000 N.am      1 UNK        -0.4300 
      5 CA         35.2750  -46.2923  -54.6762 C.3       1 UNK         0.0863 
      6 C6         34.7863  -44.8300  -54.8684 C.3       11 UNK        -0.0953 
      7 S7         34.3064  -44.5006  -56.5950 S.3       11 UNK        -0.2369 
      8 C8         32.6568  -45.2779  -56.6754 C.3       11 UNK         0.0226 
      9 C9         31.5712  -44.4306  -56.0269 C.ar      11 UNK        -0.0699 
     10 C10        31.2644  -44.5823  -54.6718 C.ar      11 UNK        -0.0804 
     11 C11        30.2512  -43.8216  -54.0763 C.ar      11 UNK        -0.0871 
     12 C12        29.5398  -42.9045  -54.8567 C.ar      11 UNK        -0.1008 
     13 C13        29.8267  -42.7542  -56.2167 C.ar      11 UNK        -0.0735 
     14 C14        30.8477  -43.5143  -56.7934 C.ar      11 UNK        -0.0945 
     15 C15        29.0476  -41.7657  -57.0699 C.3       11 UNK         0.0169 
     16 S16        27.6153  -42.5582  -57.8675 S.3       11 UNK        -0.2669 
     17 C17        26.3041  -42.3678  -56.6074 C.3       11 UNK        -0.0850 
     18 CA         26.0242  -43.6575  -55.7772 C.3       10 UNK         0.0855 
     19 C          24.9534  -43.4433  -54.6653 C.2       10 UNK         0.5543 
     20 N          25.0815  -42.3930  -53.8647 N.am      10 UNK        -0.7343 
     21 O          24.0248  -44.2299  -54.4871 O.2       10 UNK        -0.5027 
     22 N          25.7695  -44.8507  -56.5983 N.am      10 UNK        -0.4495 
     23 C          24.8115  -45.0272  -57.5178 C.2       10 UNK         0.4903 
     24 O          24.0092  -44.1583  -57.8646 O.2       10 UNK        -0.4860 
     25 CA         24.7445  -46.4356  -58.1433 C.3       9 UNK         0.0227 
     26 CB         23.8919  -46.5008  -59.4287 C.3       9 UNK        -0.1964 
     27 N          26.0788  -47.0155  -58.3419 N.am      9 UNK        -0.4231 
     28 C          27.0405  -46.6051  -59.1834 C.2       9 UNK         0.5014 
     29 O          26.8900  -45.7289  -60.0355 O.2       9 UNK        -0.5270 
     30 CA         28.4226  -47.2735  -59.0423 C.3       8 UNK         0.0284 
     31 CB         29.3821  -46.3466  -58.2798 C.3       8 UNK        -0.1977 
     32 N          28.3889  -48.5739  -58.3668 N.am      8 UNK        -0.4342 
     33 C          27.8701  -49.6959  -58.8850 C.2       8 UNK         0.5039 
     34 O          27.4032  -49.7772  -60.0215 O.2       8 UNK        -0.5547 
     35 CA         27.8425  -50.9266  -57.9659 C.3       7 UNK         0.0281 
     36 CB         29.1900  -51.6671  -57.9967 C.3       7 UNK        -0.1963 
     37 N          27.5073  -50.5594  -56.5877 N.am      7 UNK        -0.4444 
     38 C          26.2650  -50.2939  -56.1593 C.2       7 UNK         0.5104 
     39 O          25.2623  -50.3862  -56.8669 O.2       7 UNK        -0.5100 
     40 CA         26.1111  -49.8281  -54.7000 C.3       6 UNK         0.0396 
     41 CB         25.9099  -51.0345  -53.7697 C.3       6 UNK        -0.1801 
     42 N          27.2417  -49.0284  -54.2213 N.am      6 UNK        -0.4747 
     43 C          27.5513  -47.8027  -54.6695 C.2       6 UNK         0.5012 
     44 O          26.9072  -47.2076  -55.5313 O.2       6 UNK        -0.5003 
     45 CA         28.8224  -47.1515  -54.0937 C.3       5 UNK         0.0782 
     46 C46        28.4813  -46.3700  -52.7997 C.3       11 UNK        -0.0868 
     47 S47        29.9468  -45.6658  -51.9709 S.3       11 UNK        -0.2515 
     48 C48        29.9419  -43.9479  -52.5863 C.3       11 UNK         0.0199 
     49 N          29.9212  -48.1066  -53.9031 N.am      5 UNK        -0.4607 
     50 C          30.4560  -48.8935  -54.8473 C.2       4 UNK         0.5031 
     51 O          30.0260  -48.9509  -56.0000 O.2       4 UNK        -0.5119 
     52 CA         31.6610  -49.7652  -54.4530 C.3       4 UNK         0.0263 
     53 CB         32.8375  -49.5302  -55.4131 C.3       4 UNK        -0.1967 
     54 N          32.1051  -49.5179  -53.0759 N.am      4 UNK        -0.4237 
     55 C          31.7534  -50.2608  -52.0157 C.2       3 UNK         0.4908 
     56 O          31.0127  -51.2416  -52.0995 O.2       3 UNK        -0.5102 
     57 CA         32.2632  -49.8287  -50.6227 C.3       3 UNK         0.0241 
     58 CB         32.6288  -51.0360  -49.7318 C.3       3 UNK        -0.1971 
     59 N          33.3476  -48.8368  -50.6423 N.am      3 UNK        -0.4139 
     60 C          34.5985  -48.9938  -51.1014 C.2       2 UNK         0.5016 
     61 O          35.0480  -50.0420  -51.5682 O.2       2 UNK        -0.5319 
     62 CA         35.4857  -47.7342  -51.0726 C.3       2 UNK         0.0286 
     63 CB         36.8315  -48.0197  -50.3841 C.3       2 UNK        -0.1963 
     64 N          35.7382  -47.1922  -52.4123 N.am      2 UNK        -0.4790 
     65 C          34.8052  -46.8617  -53.3192 C.2       1 UNK         0.5024 
     66 O          33.5947  -46.9837  -53.1207 O.2       1 UNK        -0.4888 
     67 H67        39.1174  -47.7748  -56.4564 H         1 UNK         0.0892 
     68 H68        39.2476  -46.4856  -55.2589 H         1 UNK         0.0892 
     69 H69        39.3480  -48.1730  -54.7518 H         1 UNK         0.0892 
     70 H70        37.2587  -45.5688  -54.7854 H         1 UNK         0.3107 
     71 H71        34.7854  -46.9196  -55.4216 H         1 UNK         0.0773 
     72 H72        33.9408  -44.5775  -54.2297 H         1 UNK         0.0680 
     73 H73        35.5651  -44.1203  -54.5848 H         1 UNK         0.0680 
     74 H74        32.6809  -46.2657  -56.2157 H         1 UNK         0.0650 
     75 H75        32.4115  -45.4447  -57.7251 H         1 UNK         0.0650 
     76 H76        31.8126  -45.2996  -54.0778 H         1 UNK         0.1397 
     77 H77        28.7613  -42.3038  -54.4072 H         1 UNK         0.1363 
     78 H78        31.0730  -43.3991  -57.8448 H         1 UNK         0.1355 
     79 H79        29.6984  -41.3668  -57.8496 H         1 UNK         0.0707 
     80 H80        28.7331  -40.9055  -56.4776 H         1 UNK         0.0707 
     81 H81        26.5708  -41.5376  -55.9534 H         1 UNK         0.1034 
     82 H82        25.3955  -42.0474  -57.1191 H         1 UNK         0.1034 
     83 H83        26.9370  -43.9046  -55.2359 H         1 UNK         0.0482 
     84 H84        24.3991  -42.2552  -53.1354 H         1 UNK         0.3460 
     85 H85        25.8415  -41.7396  -53.9625 H         1 UNK         0.3460 
     86 H86        26.3096  -45.6704  -56.3338 H         1 UNK         0.2989 
     87 H87        24.2580  -47.0688  -57.3999 H         1 UNK         0.0559 
     88 H88        22.8583  -46.2197  -59.2234 H         1 UNK         0.0848 
     89 H89        23.8772  -47.5080  -59.8447 H         1 UNK         0.0848 
     90 H90        24.2623  -45.8234  -60.1984 H         1 UNK         0.0848 
     91 H91        26.3511  -47.7006  -57.6485 H         1 UNK         0.3144 
     92 H92        28.8191  -47.4262  -60.0482 H         1 UNK         0.0727 
     93 H93        29.0202  -46.1291  -57.2744 H         1 UNK         0.0790 
     94 H94        29.4928  -45.3917  -58.7954 H         1 UNK         0.0790 
     95 H95        30.3746  -46.7879  -58.1914 H         1 UNK         0.0790 
     96 H96        28.8283  -48.6269  -57.4503 H         1 UNK         0.3215 
     97 H97        27.0758  -51.6078  -58.3425 H         1 UNK         0.0863 
     98 H98        29.1641  -52.5632  -57.3766 H         1 UNK         0.0808 
     99 H99        30.0109  -51.0406  -57.6467 H         1 UNK         0.0808 
    100 H100       29.4345  -51.9833  -59.0116 H         1 UNK         0.0808 
    101 H101       28.2820  -50.3953  -55.9591 H         1 UNK         0.3118 
    102 H102       25.2152  -49.2056  -54.6465 H         1 UNK         0.0546 
    103 H103       26.7832  -51.6878  -53.7576 H         1 UNK         0.0828 
    104 H104       25.0580  -51.6359  -54.0903 H         1 UNK         0.0828 
    105 H105       25.7121  -50.7178  -52.7455 H         1 UNK         0.0828 
    106 H106       27.8355  -49.4460  -53.5187 H         1 UNK         0.3005 
    107 H107       29.1631  -46.4334  -54.8414 H         1 UNK         0.1257 
    108 H108       27.9894  -47.0243  -52.0772 H         1 UNK         0.0775 
    109 H109       27.7699  -45.5695  -53.0133 H         1 UNK         0.0775 
    110 H110       28.9787  -43.4933  -52.3493 H         1 UNK         0.0840 
    111 H111       30.6918  -43.3814  -52.0329 H         1 UNK         0.0840 
    112 H112       30.3498  -48.0998  -52.9897 H         1 UNK         0.2987 
    113 H113       31.3497  -50.8061  -54.5616 H         1 UNK         0.0785 
    114 H114       32.5766  -49.8230  -56.4311 H         1 UNK         0.0798 
    115 H115       33.7140  -50.1101  -55.1227 H         1 UNK         0.0798 
    116 H116       33.1235  -48.4813  -55.4425 H         1 UNK         0.0798 
    117 H117       32.6913  -48.6991  -52.9341 H         1 UNK         0.3079 
    118 H118       31.4177  -49.3259  -50.1507 H         1 UNK         0.0794 
    119 H119       32.9652  -50.7149  -48.7460 H         1 UNK         0.0786 
    120 H120       33.4183  -51.6434  -50.1750 H         1 UNK         0.0786 
    121 H121       31.7673  -51.6876  -49.5802 H         1 UNK         0.0786 
    122 H122       33.0818  -47.9149  -50.3226 H         1 UNK         0.3032 
    123 H123       34.9748  -46.9586  -50.4977 H         1 UNK         0.1094 
    124 H124       37.4243  -48.7468  -50.9410 H         1 UNK         0.0794 
    125 H125       37.4258  -47.1118  -50.2785 H         1 UNK         0.0794 
    126 H126       36.6789  -48.4236  -49.3823 H         1 UNK         0.0794 
    127 H127       36.7059  -47.0834  -52.6770 H         1 UNK         0.3016 
@<TRIPOS>BOND
     1    1    2 1    
     2    1   67 1    
     3    1   68 1    
     4    1   69 1    
     5    2    3 2    
     6    2    4 am   BACKBONE|DICT|INTERRES
     7    4    5 1    
     8    4   70 1    
     9    5    6 1    
    10    5   65 1    
    11    5   71 1    
    12    6    7 1    
    13    6   72 1    
    14    6   73 1    
    15    7    8 1    
    16    8    9 1    
    17    8   74 1    
    18    8   75 1    
    19    9   10 ar   
    20    9   14 ar   
    21   10   11 ar   
    22   10   76 1    
    23   11   12 ar   
    24   11   48 1    
    25   12   13 ar   
    26   12   77 1    
    27   13   14 ar   
    28   13   15 1    
    29   14   78 1    
    30   15   16 1    
    31   15   79 1    
    32   15   80 1    
    33   16   17 1    
    34   17   18 1    
    35   17   81 1    
    36   17   82 1    
    37   18   19 1    
    38   18   22 1    
    39   18   83 1    
    40   19   20 am   BACKBONE|DICT|INTERRES
    41   19   21 2    
    42   20   84 1    
    43   20   85 1    
    44   22   23 am   BACKBONE|DICT|INTERRES
    45   22   86 1    
    46   23   24 2    
    47   23   25 1    
    48   25   26 1    
    49   25   27 1    
    50   25   87 1    
    51   26   88 1    
    52   26   89 1    
    53   26   90 1    
    54   27   28 am   BACKBONE|DICT|INTERRES
    55   27   91 1    
    56   28   29 2    
    57   28   30 1    
    58   30   31 1    
    59   30   32 1    
    60   30   92 1    
    61   31   93 1    
    62   31   94 1    
    63   31   95 1    
    64   32   33 am   BACKBONE|DICT|INTERRES
    65   32   96 1    
    66   33   34 2    
    67   33   35 1    
    68   35   36 1    
    69   35   37 1    
    70   35   97 1    
    71   36   98 1    
    72   36   99 1    
    73   36  100 1    
    74   37   38 am   BACKBONE|DICT|INTERRES
    75   37  101 1    
    76   38   39 2    
    77   38   40 1    
    78   40   41 1    
    79   40   42 1    
    80   40  102 1    
    81   41  103 1    
    82   41  104 1    
    83   41  105 1    
    84   42   43 am   BACKBONE|DICT|INTERRES
    85   42  106 1    
    86   43   44 2    
    87   43   45 1    
    88   45   46 1    
    89   45   49 1    
    90   45  107 1    
    91   46   47 1    
    92   46  108 1    
    93   46  109 1    
    94   47   48 1    
    95   48  110 1    
    96   48  111 1    
    97   49   50 am   BACKBONE|DICT|INTERRES
    98   49  112 1    
    99   50   51 2    
   100   50   52 1    
   101   52   53 1    
   102   52   54 1    
   103   52  113 1    
   104   53  114 1    
   105   53  115 1    
   106   53  116 1    
   107   54   55 am   BACKBONE|DICT|INTERRES
   108   54  117 1    
   109   55   56 2    
   110   55   57 1    
   111   57   58 1    
   112   57   59 1    
   113   57  118 1    
   114   58  119 1    
   115   58  120 1    
   116   58  121 1    
   117   59   60 am   BACKBONE|DICT|INTERRES
   118   59  122 1    
   119   60   61 2    
   120   60   62 1    
   121   62   63 1    
   122   62   64 1    
   123   62  123 1    
   124   63  124 1    
   125   63  125 1    
   126   63  126 1    
   127   64   65 am   BACKBONE|DICT|INTERRES
   128   64  127 1    
   129   65   66 2    
@<TRIPOS>SUBSTRUCTURE
     1 UNK         1 GROUP             0       ****    0 ROOT    
