@<TRIPOS>MOLECULE
3R134
127   129    1
SMALL
USER_CHARGES


@<TRIPOS>ATOM
      1 CA         30.2749  -45.7672  -49.9593 C.3       0 UNK        -0.1968 
      2 C          31.4314  -45.6817  -50.9439 C.2       0 UNK         0.4852 
      3 O          31.2674  -46.0609  -52.1014 O.2       0 UNK        -0.5359 
      4 N          32.5960  -45.1999  -50.4857 N.am      1 UNK        -0.4300 
      5 CA         33.8592  -45.0140  -51.2205 C.3       1 UNK         0.0863 
      6 C6         33.7517  -44.1224  -52.4868 C.3       11 UNK        -0.0953 
      7 S7         33.1549  -42.4379  -52.1182 S.3       11 UNK        -0.2369 
      8 C8         33.5425  -41.5707  -53.6735 C.3       11 UNK         0.0226 
      9 C9         32.6564  -42.0448  -54.8162 C.ar      11 UNK        -0.0699 
     10 C10        33.0773  -43.0908  -55.6426 C.ar      11 UNK        -0.0804 
     11 C11        32.2424  -43.5818  -56.6512 C.ar      11 UNK        -0.0871 
     12 C12        30.9980  -42.9804  -56.8624 C.ar      11 UNK        -0.1008 
     13 C13        30.5784  -41.9132  -56.0626 C.ar      11 UNK        -0.0735 
     14 C14        31.4086  -41.4527  -55.0360 C.ar      11 UNK        -0.0945 
     15 C15        29.2205  -41.2751  -56.3065 C.3       11 UNK         0.0169 
     16 S16        27.9129  -42.1924  -55.4380 S.3       11 UNK        -0.2669 
     17 C17        26.4174  -41.6483  -56.3430 C.3       11 UNK        -0.0850 
     18 CA         25.9028  -42.6664  -57.4011 C.3       10 UNK         0.0855 
     19 C          26.7200  -42.5937  -58.7222 C.2       10 UNK         0.5543 
     20 N          26.3557  -41.6888  -59.6207 N.am      10 UNK        -0.7343 
     21 O          27.7012  -43.3057  -58.9215 O.2       10 UNK        -0.5027 
     22 N          25.8107  -44.0183  -56.8347 N.am      10 UNK        -0.4495 
     23 C          25.2333  -45.0794  -57.4072 C.2       10 UNK         0.4903 
     24 O          24.6004  -45.0468  -58.4652 O.2       10 UNK        -0.4860 
     25 CA         25.3314  -46.3907  -56.6088 C.3       9 UNK         0.0227 
     26 CB         24.0278  -46.6470  -55.8351 C.3       9 UNK        -0.1964 
     27 N          25.6442  -47.5708  -57.4182 N.am      9 UNK        -0.4231 
     28 C          26.6846  -47.7224  -58.2501 C.2       9 UNK         0.5014 
     29 O          27.4981  -46.8402  -58.5276 O.2       9 UNK        -0.5270 
     30 CA         26.8699  -49.1390  -58.8183 C.3       8 UNK         0.0284 
     31 CB         27.9329  -49.2043  -59.9315 C.3       8 UNK        -0.1977 
     32 N          27.2533  -50.0447  -57.7346 N.am      8 UNK        -0.4342 
     33 C          26.3915  -50.6861  -56.9353 C.2       8 UNK         0.5039 
     34 O          25.1680  -50.6244  -57.0688 O.2       8 UNK        -0.5547 
     35 CA         26.9895  -51.4978  -55.7749 C.3       7 UNK         0.0281 
     36 CB         27.8136  -52.6901  -56.2894 C.3       7 UNK        -0.1963 
     37 N          27.8086  -50.6690  -54.8880 N.am      7 UNK        -0.4444 
     38 C          27.3303  -49.7080  -54.0827 C.2       7 UNK         0.5104 
     39 O          26.1328  -49.4527  -53.9521 O.2       7 UNK        -0.5100 
     40 CA         28.3622  -48.8839  -53.2923 C.3       6 UNK         0.0396 
     41 CB         28.7903  -49.6163  -52.0114 C.3       6 UNK        -0.1801 
     42 N          29.5438  -48.5637  -54.0922 N.am      6 UNK        -0.4747 
     43 C          29.5473  -47.7238  -55.1367 C.2       6 UNK         0.5012 
     44 O          28.5737  -47.0498  -55.4648 O.2       6 UNK        -0.5003 
     45 CA         30.8395  -47.6354  -55.9716 C.3       5 UNK         0.0782 
     46 C46        31.7595  -46.5176  -55.4329 C.3       11 UNK        -0.0868 
     47 S47        33.2064  -46.2115  -56.5028 S.3       11 UNK        -0.2515 
     48 C48        32.6644  -44.7782  -57.4978 C.3       11 UNK         0.0199 
     49 N          31.5296  -48.9269  -56.0491 N.am      5 UNK        -0.4607 
     50 C          31.0876  -49.9907  -56.7309 C.2       4 UNK         0.5031 
     51 O          30.0459  -50.0036  -57.3840 O.2       4 UNK        -0.5119 
     52 CA         31.9356  -51.2695  -56.6415 C.3       4 UNK         0.0263 
     53 CB         33.1124  -51.2083  -57.6282 C.3       4 UNK        -0.1967 
     54 N          32.4382  -51.5164  -55.2882 N.am      4 UNK        -0.4237 
     55 C          31.6605  -51.8103  -54.2360 C.2       3 UNK         0.4908 
     56 O          30.4398  -51.9545  -54.3050 O.2       3 UNK        -0.5102 
     57 CA         32.3591  -51.9089  -52.8677 C.3       3 UNK         0.0241 
     58 CB         32.9617  -53.3084  -52.6656 C.3       3 UNK        -0.1971 
     59 N          33.3950  -50.8868  -52.6633 N.am      3 UNK        -0.4139 
     60 C          33.1618  -49.5673  -52.6823 C.2       2 UNK         0.5016 
     61 O          32.0516  -49.0784  -52.8933 O.2       2 UNK        -0.5319 
     62 CA         34.3644  -48.6397  -52.4843 C.3       2 UNK         0.0286 
     63 CB         35.2067  -48.5591  -53.7724 C.3       2 UNK        -0.1963 
     64 N          33.8741  -47.3105  -52.1232 N.am      2 UNK        -0.4790 
     65 C          34.5818  -46.3417  -51.5349 C.2       1 UNK         0.5024 
     66 O          35.7679  -46.4656  -51.2254 O.2       1 UNK        -0.4888 
     67 H67        30.5533  -45.4110  -48.9677 H         1 UNK         0.0892 
     68 H68        29.4383  -45.1659  -50.3140 H         1 UNK         0.0892 
     69 H69        29.9377  -46.7994  -49.8682 H         1 UNK         0.0892 
     70 H70        32.6462  -44.9312  -49.5129 H         1 UNK         0.3107 
     71 H71        34.5103  -44.4870  -50.5208 H         1 UNK         0.0773 
     72 H72        33.0906  -44.5759  -53.2265 H         1 UNK         0.0680 
     73 H73        34.7286  -44.0329  -52.9659 H         1 UNK         0.0680 
     74 H74        34.5960  -41.7118  -53.9200 H         1 UNK         0.0650 
     75 H75        33.4062  -40.4990  -53.5215 H         1 UNK         0.0650 
     76 H76        34.0395  -43.5541  -55.4733 H         1 UNK         0.1397 
     77 H77        30.3414  -43.3508  -57.6391 H         1 UNK         0.1363 
     78 H78        31.0781  -40.6436  -54.3990 H         1 UNK         0.1355 
     79 H79        29.0167  -41.2570  -57.3778 H         1 UNK         0.0707 
     80 H80        29.2170  -40.2360  -55.9737 H         1 UNK         0.0707 
     81 H81        25.6351  -41.4913  -55.5989 H         1 UNK         0.1034 
     82 H82        26.5842  -40.6651  -56.7877 H         1 UNK         0.1034 
     83 H83        24.8798  -42.3777  -57.6512 H         1 UNK         0.0482 
     84 H84        26.8812  -41.6123  -60.4775 H         1 UNK         0.3460 
     85 H85        25.5587  -41.0902  -59.4683 H         1 UNK         0.3460 
     86 H86        26.3392  -44.1557  -55.9850 H         1 UNK         0.2989 
     87 H87        26.1356  -46.2886  -55.8793 H         1 UNK         0.0559 
     88 H88        23.7767  -45.7978  -55.1982 H         1 UNK         0.0848 
     89 H89        24.1160  -47.5200  -55.1873 H         1 UNK         0.0848 
     90 H90        23.1854  -46.8098  -56.5087 H         1 UNK         0.0848 
     91 H91        25.0742  -48.3915  -57.2520 H         1 UNK         0.3144 
     92 H92        25.9185  -49.4567  -59.2507 H         1 UNK         0.0727 
     93 H93        28.0320  -50.2158  -60.3253 H         1 UNK         0.0790 
     94 H94        28.9139  -48.8870  -59.5758 H         1 UNK         0.0790 
     95 H95        27.6628  -48.5550  -60.7651 H         1 UNK         0.0790 
     96 H96        28.2521  -50.0950  -57.5313 H         1 UNK         0.3215 
     97 H97        26.1584  -51.8951  -55.1881 H         1 UNK         0.0863 
     98 H98        28.1538  -53.3182  -55.4657 H         1 UNK         0.0808 
     99 H99        28.6944  -52.3696  -56.8461 H         1 UNK         0.0808 
    100 H100       27.2183  -53.3193  -56.9524 H         1 UNK         0.0808 
    101 H101       28.8066  -50.8546  -54.8778 H         1 UNK         0.3118 
    102 H102       27.8897  -47.9437  -53.0005 H         1 UNK         0.0546 
    103 H103       29.2738  -50.5682  -52.2317 H         1 UNK         0.0828 
    104 H104       27.9293  -49.8255  -51.3755 H         1 UNK         0.0828 
    105 H105       29.4887  -49.0152  -51.4286 H         1 UNK         0.0828 
    106 H106       30.4265  -48.9804  -53.8025 H         1 UNK         0.3005 
    107 H107       30.5320  -47.3622  -56.9842 H         1 UNK         0.1257 
    108 H108       32.1358  -46.7865  -54.4459 H         1 UNK         0.0775 
    109 H109       31.2000  -45.5919  -55.2902 H         1 UNK         0.0775 
    110 H110       33.4810  -44.4755  -58.1545 H         1 UNK         0.0840 
    111 H111       31.8489  -45.0987  -58.1482 H         1 UNK         0.0840 
    112 H112       32.3755  -49.0091  -55.5070 H         1 UNK         0.2987 
    113 H113       31.2980  -52.1106  -56.9225 H         1 UNK         0.0785 
    114 H114       32.7573  -51.0425  -58.6464 H         1 UNK         0.0798 
    115 H115       33.6762  -52.1414  -57.6319 H         1 UNK         0.0798 
    116 H116       33.8029  -50.3985  -57.3885 H         1 UNK         0.0798 
    117 H117       33.4322  -51.4221  -55.1412 H         1 UNK         0.3079 
    118 H118       31.5945  -51.7557  -52.1031 H         1 UNK         0.0794 
    119 H119       33.3672  -53.4244  -51.6603 H         1 UNK         0.0786 
    120 H120       33.7627  -53.5129  -53.3771 H         1 UNK         0.0786 
    121 H121       32.2033  -54.0817  -52.7974 H         1 UNK         0.0786 
    122 H122       34.3337  -51.2176  -52.4899 H         1 UNK         0.3032 
    123 H123       34.9716  -49.0308  -51.6649 H         1 UNK         0.1094 
    124 H124       34.6272  -48.1629  -54.6067 H         1 UNK         0.0794 
    125 H125       36.0778  -47.9175  -53.6403 H         1 UNK         0.0794 
    126 H126       35.5768  -49.5416  -54.0672 H         1 UNK         0.0794 
    127 H127       32.8818  -47.1528  -52.3022 H         1 UNK         0.3016 
@<TRIPOS>BOND
     1    1    2 1    
     2    1   67 1    
     3    1   68 1    
     4    1   69 1    
     5    2    3 2    
     6    2    4 am   BACKBONE|DICT|INTERRES
     7    4    5 1    
     8    4   70 1    
     9    5    6 1    
    10    5   65 1    
    11    5   71 1    
    12    6    7 1    
    13    6   72 1    
    14    6   73 1    
    15    7    8 1    
    16    8    9 1    
    17    8   74 1    
    18    8   75 1    
    19    9   10 ar   
    20    9   14 ar   
    21   10   11 ar   
    22   10   76 1    
    23   11   12 ar   
    24   11   48 1    
    25   12   13 ar   
    26   12   77 1    
    27   13   14 ar   
    28   13   15 1    
    29   14   78 1    
    30   15   16 1    
    31   15   79 1    
    32   15   80 1    
    33   16   17 1    
    34   17   18 1    
    35   17   81 1    
    36   17   82 1    
    37   18   19 1    
    38   18   22 1    
    39   18   83 1    
    40   19   20 am   BACKBONE|DICT|INTERRES
    41   19   21 2    
    42   20   84 1    
    43   20   85 1    
    44   22   23 am   BACKBONE|DICT|INTERRES
    45   22   86 1    
    46   23   24 2    
    47   23   25 1    
    48   25   26 1    
    49   25   27 1    
    50   25   87 1    
    51   26   88 1    
    52   26   89 1    
    53   26   90 1    
    54   27   28 am   BACKBONE|DICT|INTERRES
    55   27   91 1    
    56   28   29 2    
    57   28   30 1    
    58   30   31 1    
    59   30   32 1    
    60   30   92 1    
    61   31   93 1    
    62   31   94 1    
    63   31   95 1    
    64   32   33 am   BACKBONE|DICT|INTERRES
    65   32   96 1    
    66   33   34 2    
    67   33   35 1    
    68   35   36 1    
    69   35   37 1    
    70   35   97 1    
    71   36   98 1    
    72   36   99 1    
    73   36  100 1    
    74   37   38 am   BACKBONE|DICT|INTERRES
    75   37  101 1    
    76   38   39 2    
    77   38   40 1    
    78   40   41 1    
    79   40   42 1    
    80   40  102 1    
    81   41  103 1    
    82   41  104 1    
    83   41  105 1    
    84   42   43 am   BACKBONE|DICT|INTERRES
    85   42  106 1    
    86   43   44 2    
    87   43   45 1    
    88   45   46 1    
    89   45   49 1    
    90   45  107 1    
    91   46   47 1    
    92   46  108 1    
    93   46  109 1    
    94   47   48 1    
    95   48  110 1    
    96   48  111 1    
    97   49   50 am   BACKBONE|DICT|INTERRES
    98   49  112 1    
    99   50   51 2    
   100   50   52 1    
   101   52   53 1    
   102   52   54 1    
   103   52  113 1    
   104   53  114 1    
   105   53  115 1    
   106   53  116 1    
   107   54   55 am   BACKBONE|DICT|INTERRES
   108   54  117 1    
   109   55   56 2    
   110   55   57 1    
   111   57   58 1    
   112   57   59 1    
   113   57  118 1    
   114   58  119 1    
   115   58  120 1    
   116   58  121 1    
   117   59   60 am   BACKBONE|DICT|INTERRES
   118   59  122 1    
   119   60   61 2    
   120   60   62 1    
   121   62   63 1    
   122   62   64 1    
   123   62  123 1    
   124   63  124 1    
   125   63  125 1    
   126   63  126 1    
   127   64   65 am   BACKBONE|DICT|INTERRES
   128   64  127 1    
   129   65   66 2    
@<TRIPOS>SUBSTRUCTURE
     1 UNK         1 GROUP             0       ****    0 ROOT    
