@<TRIPOS>MOLECULE
3R134
127   129    1
SMALL
USER_CHARGES


@<TRIPOS>ATOM
      1 CA         34.2424  -46.1518  -52.1119 C.3       0 UNK        -0.1968 
      2 C          33.7898  -46.2233  -53.5620 C.2       0 UNK         0.4852 
      3 O          32.6828  -46.6895  -53.8268 O.2       0 UNK        -0.5359 
      4 N          34.6453  -45.7840  -54.4990 N.am      1 UNK        -0.4300 
      5 CA         34.4450  -45.7060  -55.9587 C.3       1 UNK         0.0863 
      6 C6         33.2638  -44.7850  -56.3749 C.3       11 UNK        -0.0953 
      7 S7         33.7364  -43.0243  -56.4036 S.3       11 UNK        -0.2369 
      8 C8         33.5389  -42.5102  -54.6634 C.3       11 UNK         0.0226 
      9 C9         32.1123  -42.5892  -54.1260 C.ar      11 UNK        -0.0699 
     10 C10        31.9005  -43.0000  -52.8054 C.ar      11 UNK        -0.0804 
     11 C11        30.6119  -43.0308  -52.2649 C.ar      11 UNK        -0.0871 
     12 C12        29.5283  -42.6408  -53.0545 C.ar      11 UNK        -0.1008 
     13 C13        29.7201  -42.2442  -54.3807 C.ar      11 UNK        -0.0735 
     14 C14        31.0141  -42.2116  -54.9085 C.ar      11 UNK        -0.0945 
     15 C15        28.5262  -41.8472  -55.2348 C.3       11 UNK         0.0169 
     16 S16        27.3878  -43.2482  -55.4445 S.3       11 UNK        -0.2669 
     17 C17        26.1286  -42.5342  -56.5573 C.3       11 UNK        -0.0850 
     18 CA         26.1450  -43.1597  -57.9768 C.3       10 UNK         0.0855 
     19 C          27.3138  -42.6171  -58.8536 C.2       10 UNK         0.5543 
     20 N          28.1764  -43.4496  -59.4245 N.am      10 UNK        -0.7343 
     21 O          27.4305  -41.4071  -59.0316 O.2       10 UNK        -0.5027 
     22 N          26.0477  -44.6242  -57.9054 N.am      10 UNK        -0.4495 
     23 C          25.5603  -45.4199  -58.8618 C.2       10 UNK         0.4903 
     24 O          25.0376  -45.0045  -59.8975 O.2       10 UNK        -0.4860 
     25 CA         25.6901  -46.9356  -58.6085 C.3       9 UNK         0.0227 
     26 CB         25.4829  -47.7715  -59.8888 C.3       9 UNK        -0.1964 
     27 N          26.9463  -47.3233  -57.9498 N.am      9 UNK        -0.4231 
     28 C          28.1987  -47.0781  -58.3733 C.2       9 UNK         0.5014 
     29 O          28.4643  -46.3808  -59.3533 O.2       9 UNK        -0.5270 
     30 CA         29.3622  -47.7114  -57.5840 C.3       8 UNK         0.0284 
     31 CB         30.1112  -46.6456  -56.7668 C.3       8 UNK        -0.1977 
     32 N          28.9535  -48.8060  -56.6994 N.am      8 UNK        -0.4342 
     33 C          28.4888  -49.9958  -57.1085 C.2       8 UNK         0.5039 
     34 O          28.4312  -50.3407  -58.2889 O.2       8 UNK        -0.5547 
     35 CA         27.9626  -50.9493  -56.0221 C.3       7 UNK         0.0281 
     36 CB         29.0506  -51.9507  -55.5982 C.3       7 UNK        -0.1963 
     37 N          27.4486  -50.2419  -54.8440 N.am      7 UNK        -0.4444 
     38 C          26.3261  -49.5073  -54.8245 C.2       7 UNK         0.5104 
     39 O          25.5934  -49.3508  -55.8012 O.2       7 UNK        -0.5100 
     40 CA         25.9849  -48.7980  -53.5017 C.3       6 UNK         0.0396 
     41 CB         25.2687  -49.7599  -52.5408 C.3       6 UNK        -0.1801 
     42 N          27.1668  -48.2348  -52.8436 N.am      6 UNK        -0.4747 
     43 C          27.8771  -47.1990  -53.3184 C.2       6 UNK         0.5012 
     44 O          27.5608  -46.5701  -54.3266 O.2       6 UNK        -0.5003 
     45 CA         29.1816  -46.8452  -52.5693 C.3       5 UNK         0.0782 
     46 C46        28.9071  -45.8049  -51.4562 C.3       11 UNK        -0.0868 
     47 S47        30.4414  -45.2681  -50.6210 S.3       11 UNK        -0.2515 
     48 C48        30.3929  -43.4588  -50.8211 C.3       11 UNK         0.0199 
     49 N          29.8583  -48.0380  -52.0398 N.am      5 UNK        -0.4607 
     50 C          30.3195  -49.0487  -52.7832 C.2       4 UNK         0.5031 
     51 O          30.2023  -49.1112  -54.0108 O.2       4 UNK        -0.5119 
     52 CA         30.9521  -50.2194  -52.0250 C.3       4 UNK         0.0263 
     53 CB         29.8675  -51.1258  -51.4111 C.3       4 UNK        -0.1967 
     54 N          31.7510  -50.9677  -52.9832 N.am      4 UNK        -0.4237 
     55 C          32.7186  -51.8518  -52.7207 C.2       3 UNK         0.4908 
     56 O          33.0298  -52.2165  -51.5863 O.2       3 UNK        -0.5102 
     57 CA         33.4772  -52.4223  -53.9362 C.3       3 UNK         0.0241 
     58 CB         32.9066  -53.7962  -54.3249 C.3       3 UNK        -0.1971 
     59 N          33.4467  -51.5394  -55.1098 N.am      3 UNK        -0.4139 
     60 C          34.0266  -50.3320  -55.1690 C.2       2 UNK         0.5016 
     61 O          34.7326  -49.8756  -54.2658 O.2       2 UNK        -0.5319 
     62 CA         33.7630  -49.4851  -56.4254 C.3       2 UNK         0.0286 
     63 CB         32.4305  -49.8112  -57.1291 C.3       2 UNK        -0.1963 
     64 N          33.7672  -48.0792  -56.0320 N.am      2 UNK        -0.4790 
     65 C          34.3866  -47.0815  -56.6648 C.2       1 UNK         0.5024 
     66 O          34.9380  -47.2160  -57.7585 O.2       1 UNK        -0.4888 
     67 H67        33.4842  -45.6542  -51.5079 H         1 UNK         0.0892 
     68 H68        34.3847  -47.1574  -51.7171 H         1 UNK         0.0892 
     69 H69        35.1780  -45.6041  -52.0013 H         1 UNK         0.0892 
     70 H70        35.5548  -45.4653  -54.1956 H         1 UNK         0.3107 
     71 H71        35.3632  -45.2532  -56.3372 H         1 UNK         0.0773 
     72 H72        32.9287  -45.0168  -57.3877 H         1 UNK         0.0680 
     73 H73        32.3889  -44.9263  -55.7397 H         1 UNK         0.0680 
     74 H74        33.8754  -41.4766  -54.5756 H         1 UNK         0.0650 
     75 H75        34.2159  -43.1007  -54.0462 H         1 UNK         0.0650 
     76 H76        32.7409  -43.2874  -52.1890 H         1 UNK         0.1397 
     77 H77        28.5275  -42.6553  -52.6449 H         1 UNK         0.1363 
     78 H78        31.1667  -41.8874  -55.9285 H         1 UNK         0.1355 
     79 H79        28.0010  -41.0173  -54.7598 H         1 UNK         0.0707 
     80 H80        28.8493  -41.4975  -56.2167 H         1 UNK         0.0707 
     81 H81        25.1534  -42.7107  -56.1011 H         1 UNK         0.1034 
     82 H82        26.2299  -41.4480  -56.6026 H         1 UNK         0.1034 
     83 H83        25.2409  -42.8061  -58.4761 H         1 UNK         0.0482 
     84 H84        28.0988  -44.4552  -59.3098 H         1 UNK         0.3460 
     85 H85        28.9177  -43.0711  -59.9912 H         1 UNK         0.3460 
     86 H86        26.4811  -45.0449  -57.0949 H         1 UNK         0.2989 
     87 H87        24.8919  -47.1960  -57.9120 H         1 UNK         0.0559 
     88 H88        24.4981  -47.5914  -60.3217 H         1 UNK         0.0848 
     89 H89        25.5532  -48.8392  -59.6802 H         1 UNK         0.0848 
     90 H90        26.2240  -47.5300  -60.6517 H         1 UNK         0.0848 
     91 H91        26.8380  -47.8917  -57.1188 H         1 UNK         0.3144 
     92 H92        30.0563  -48.1239  -58.3184 H         1 UNK         0.0727 
     93 H93        29.4574  -46.1431  -56.0545 H         1 UNK         0.0790 
     94 H94        30.5224  -45.8758  -57.4206 H         1 UNK         0.0790 
     95 H95        30.9427  -47.0784  -56.2096 H         1 UNK         0.0790 
     96 H96        29.0522  -48.6507  -55.7015 H         1 UNK         0.3215 
     97 H97        27.1354  -51.5141  -56.4581 H         1 UNK         0.0863 
     98 H98        28.6785  -52.6525  -54.8517 H         1 UNK         0.0808 
     99 H99        29.9252  -51.4515  -55.1849 H         1 UNK         0.0808 
    100 H100       29.3891  -52.5379  -56.4529 H         1 UNK         0.0808 
    101 H101       28.0247  -50.2609  -54.0159 H         1 UNK         0.3118 
    102 H102       25.3015  -47.9773  -53.7307 H         1 UNK         0.0546 
    103 H103       25.9060  -50.5961  -52.2504 H         1 UNK         0.0828 
    104 H104       24.3743  -50.1784  -53.0045 H         1 UNK         0.0828 
    105 H105       24.9502  -49.2488  -51.6321 H         1 UNK         0.0828 
    106 H106       27.4892  -48.6916  -52.0028 H         1 UNK         0.3005 
    107 H107       29.8539  -46.3917  -53.3032 H         1 UNK         0.1257 
    108 H108       28.2380  -46.2188  -50.6995 H         1 UNK         0.0775 
    109 H109       28.3916  -44.9364  -51.8676 H         1 UNK         0.0775 
    110 H110       29.4436  -43.0771  -50.4417 H         1 UNK         0.0840 
    111 H111       31.1672  -43.0164  -50.1926 H         1 UNK         0.0840 
    112 H112       30.0068  -48.0514  -51.0413 H         1 UNK         0.2987 
    113 H113       31.6051  -49.8250  -51.2437 H         1 UNK         0.0785 
    114 H114       29.2426  -50.5745  -50.7076 H         1 UNK         0.0798 
    115 H115       30.3091  -51.9570  -50.8612 H         1 UNK         0.0798 
    116 H116       29.2123  -51.5453  -52.1754 H         1 UNK         0.0798 
    117 H117       31.5874  -50.6804  -53.9399 H         1 UNK         0.3079 
    118 H118       34.5200  -52.5528  -53.6392 H         1 UNK         0.0794 
    119 H119       33.4790  -54.2503  -55.1340 H         1 UNK         0.0786 
    120 H120       31.8661  -53.7266  -54.6453 H         1 UNK         0.0786 
    121 H121       32.9412  -54.4858  -53.4801 H         1 UNK         0.0786 
    122 H122       32.9037  -51.8537  -55.9008 H         1 UNK         0.3032 
    123 H123       34.5867  -49.6824  -57.1152 H         1 UNK         0.1094 
    124 H124       31.5859  -49.7192  -56.4461 H         1 UNK         0.0794 
    125 H125       32.2556  -49.1327  -57.9639 H         1 UNK         0.0794 
    126 H126       32.4244  -50.8209  -57.5405 H         1 UNK         0.0794 
    127 H127       33.3507  -47.8640  -55.1274 H         1 UNK         0.3016 
@<TRIPOS>BOND
     1    1    2 1    
     2    1   67 1    
     3    1   68 1    
     4    1   69 1    
     5    2    3 2    
     6    2    4 am   BACKBONE|DICT|INTERRES
     7    4    5 1    
     8    4   70 1    
     9    5    6 1    
    10    5   65 1    
    11    5   71 1    
    12    6    7 1    
    13    6   72 1    
    14    6   73 1    
    15    7    8 1    
    16    8    9 1    
    17    8   74 1    
    18    8   75 1    
    19    9   10 ar   
    20    9   14 ar   
    21   10   11 ar   
    22   10   76 1    
    23   11   12 ar   
    24   11   48 1    
    25   12   13 ar   
    26   12   77 1    
    27   13   14 ar   
    28   13   15 1    
    29   14   78 1    
    30   15   16 1    
    31   15   79 1    
    32   15   80 1    
    33   16   17 1    
    34   17   18 1    
    35   17   81 1    
    36   17   82 1    
    37   18   19 1    
    38   18   22 1    
    39   18   83 1    
    40   19   20 am   BACKBONE|DICT|INTERRES
    41   19   21 2    
    42   20   84 1    
    43   20   85 1    
    44   22   23 am   BACKBONE|DICT|INTERRES
    45   22   86 1    
    46   23   24 2    
    47   23   25 1    
    48   25   26 1    
    49   25   27 1    
    50   25   87 1    
    51   26   88 1    
    52   26   89 1    
    53   26   90 1    
    54   27   28 am   BACKBONE|DICT|INTERRES
    55   27   91 1    
    56   28   29 2    
    57   28   30 1    
    58   30   31 1    
    59   30   32 1    
    60   30   92 1    
    61   31   93 1    
    62   31   94 1    
    63   31   95 1    
    64   32   33 am   BACKBONE|DICT|INTERRES
    65   32   96 1    
    66   33   34 2    
    67   33   35 1    
    68   35   36 1    
    69   35   37 1    
    70   35   97 1    
    71   36   98 1    
    72   36   99 1    
    73   36  100 1    
    74   37   38 am   BACKBONE|DICT|INTERRES
    75   37  101 1    
    76   38   39 2    
    77   38   40 1    
    78   40   41 1    
    79   40   42 1    
    80   40  102 1    
    81   41  103 1    
    82   41  104 1    
    83   41  105 1    
    84   42   43 am   BACKBONE|DICT|INTERRES
    85   42  106 1    
    86   43   44 2    
    87   43   45 1    
    88   45   46 1    
    89   45   49 1    
    90   45  107 1    
    91   46   47 1    
    92   46  108 1    
    93   46  109 1    
    94   47   48 1    
    95   48  110 1    
    96   48  111 1    
    97   49   50 am   BACKBONE|DICT|INTERRES
    98   49  112 1    
    99   50   51 2    
   100   50   52 1    
   101   52   53 1    
   102   52   54 1    
   103   52  113 1    
   104   53  114 1    
   105   53  115 1    
   106   53  116 1    
   107   54   55 am   BACKBONE|DICT|INTERRES
   108   54  117 1    
   109   55   56 2    
   110   55   57 1    
   111   57   58 1    
   112   57   59 1    
   113   57  118 1    
   114   58  119 1    
   115   58  120 1    
   116   58  121 1    
   117   59   60 am   BACKBONE|DICT|INTERRES
   118   59  122 1    
   119   60   61 2    
   120   60   62 1    
   121   62   63 1    
   122   62   64 1    
   123   62  123 1    
   124   63  124 1    
   125   63  125 1    
   126   63  126 1    
   127   64   65 am   BACKBONE|DICT|INTERRES
   128   64  127 1    
   129   65   66 2    
@<TRIPOS>SUBSTRUCTURE
     1 UNK         1 GROUP             0       ****    0 ROOT    
