@<TRIPOS>MOLECULE
3R134
127   129    1
SMALL
USER_CHARGES


@<TRIPOS>ATOM
      1 CA         36.3868  -46.2501  -49.7730 C.3       0 UNK        -0.1968 
      2 C          35.4544  -46.7705  -50.8561 C.2       0 UNK         0.4852 
      3 O          35.6570  -47.8781  -51.3549 O.2       0 UNK        -0.5359 
      4 N          34.4249  -45.9878  -51.2124 N.am      1 UNK        -0.4300 
      5 CA         33.4392  -46.2783  -52.2667 C.3       1 UNK         0.0863 
      6 C6         32.4106  -45.1333  -52.4335 C.3       11 UNK        -0.0953 
      7 S7         33.2061  -43.5234  -52.7457 S.3       11 UNK        -0.2369 
      8 C8         31.8195  -42.5655  -53.4441 C.3       11 UNK         0.0226 
      9 C9         31.3390  -43.0760  -54.7998 C.ar      11 UNK        -0.0699 
     10 C10        32.2508  -43.4540  -55.7909 C.ar      11 UNK        -0.0804 
     11 C11        31.8062  -43.9101  -57.0343 C.ar      11 UNK        -0.0871 
     12 C12        30.4339  -43.9691  -57.2932 C.ar      11 UNK        -0.1008 
     13 C13        29.5101  -43.5734  -56.3207 C.ar      11 UNK        -0.0735 
     14 C14        29.9690  -43.1353  -55.0744 C.ar      11 UNK        -0.0945 
     15 C15        28.0193  -43.6001  -56.6233 C.3       11 UNK         0.0169 
     16 S16        27.5879  -42.3255  -57.8533 S.3       11 UNK        -0.2669 
     17 C17        25.9768  -41.7074  -57.2474 C.3       11 UNK        -0.0850 
     18 CA         24.7460  -42.4030  -57.8898 C.3       10 UNK         0.0855 
     19 C          24.5776  -42.1095  -59.4092 C.2       10 UNK         0.5543 
     20 N          24.3705  -43.1030  -60.2694 N.am      10 UNK        -0.7343 
     21 O          24.6058  -40.9505  -59.8161 O.2       10 UNK        -0.5027 
     22 N          24.6858  -43.8297  -57.5662 N.am      10 UNK        -0.4495 
     23 C          24.2531  -44.3748  -56.4308 C.2       10 UNK         0.4903 
     24 O          23.8743  -43.7203  -55.4591 O.2       10 UNK        -0.4860 
     25 CA         24.2383  -45.9131  -56.3516 C.3       9 UNK         0.0227 
     26 CB         22.8386  -46.4609  -56.6899 C.3       9 UNK        -0.1964 
     27 N          25.2765  -46.6088  -57.1317 N.am      9 UNK        -0.4231 
     28 C          25.4538  -46.6683  -58.4640 C.2       9 UNK         0.5014 
     29 O          24.7747  -46.0286  -59.2702 O.2       9 UNK        -0.5270 
     30 CA         26.5958  -47.5539  -59.0033 C.3       8 UNK         0.0284 
     31 CB         27.7103  -46.6844  -59.6094 C.3       8 UNK        -0.1977 
     32 N          27.1716  -48.4466  -57.9930 N.am      8 UNK        -0.4342 
     33 C          26.5513  -49.5291  -57.4951 C.2       8 UNK         0.5039 
     34 O          25.4834  -49.9581  -57.9335 O.2       8 UNK        -0.5547 
     35 CA         27.1932  -50.2372  -56.2844 C.3       7 UNK         0.0281 
     36 CB         27.8614  -51.5490  -56.7251 C.3       7 UNK        -0.1963 
     37 N          28.1626  -49.4138  -55.5522 N.am      7 UNK        -0.4444 
     38 C          27.8739  -48.2601  -54.9269 C.2       7 UNK         0.5104 
     39 O          26.7323  -47.8079  -54.8385 O.2       7 UNK        -0.5100 
     40 CA         29.0451  -47.4306  -54.3625 C.3       6 UNK         0.0396 
     41 CB         29.1331  -47.6133  -52.8408 C.3       6 UNK        -0.1801 
     42 N          30.3491  -47.7173  -54.9751 N.am      6 UNK        -0.4747 
     43 C          30.6202  -47.6164  -56.2858 C.2       6 UNK         0.5012 
     44 O          29.7886  -47.2490  -57.1173 O.2       6 UNK        -0.5003 
     45 CA         32.0062  -48.0963  -56.7713 C.3       5 UNK         0.0782 
     46 C46        33.0007  -46.9262  -56.9765 C.3       11 UNK        -0.0868 
     47 S47        32.7085  -46.0689  -58.5628 S.3       11 UNK        -0.2515 
     48 C48        32.8165  -44.3104  -58.1010 C.3       11 UNK         0.0199 
     49 N          32.6040  -49.1832  -55.9809 N.am      5 UNK        -0.4607 
     50 C          32.0457  -50.3844  -55.7725 C.2       4 UNK         0.5031 
     51 O          30.8732  -50.6530  -56.0301 O.2       4 UNK        -0.5119 
     52 CA         32.9654  -51.4818  -55.2298 C.3       4 UNK         0.0263 
     53 CB         34.0925  -51.7908  -56.2408 C.3       4 UNK        -0.1967 
     54 N          33.5024  -51.1375  -53.9116 N.am      4 UNK        -0.4237 
     55 C          34.1213  -52.0149  -53.1042 C.2       3 UNK         0.4908 
     56 O          34.3095  -53.1969  -53.3967 O.2       3 UNK        -0.5102 
     57 CA         34.6223  -51.5162  -51.7363 C.3       3 UNK         0.0241 
     58 CB         36.1002  -51.1043  -51.8276 C.3       3 UNK        -0.1971 
     59 N          33.8373  -50.4080  -51.1923 N.am      3 UNK        -0.4139 
     60 C          32.5633  -50.5138  -50.7831 C.2       2 UNK         0.5016 
     61 O          31.9457  -51.5789  -50.7511 O.2       2 UNK        -0.5319 
     62 CA         31.8387  -49.2264  -50.3444 C.3       2 UNK         0.0286 
     63 CB         31.6870  -49.1902  -48.8149 C.3       2 UNK        -0.1963 
     64 N          32.4736  -47.9806  -50.7850 N.am      2 UNK        -0.4790 
     65 C          32.6987  -47.6137  -52.0553 C.2       1 UNK         0.5024 
     66 O          32.3801  -48.2958  -53.0304 O.2       1 UNK        -0.4888 
     67 H67        36.0855  -45.2667  -49.4124 H         1 UNK         0.0892 
     68 H68        36.3955  -46.9350  -48.9255 H         1 UNK         0.0892 
     69 H69        37.4026  -46.1732  -50.1596 H         1 UNK         0.0892 
     70 H70        34.3223  -45.0830  -50.7743 H         1 UNK         0.3107 
     71 H71        33.9955  -46.3736  -53.2016 H         1 UNK         0.0773 
     72 H72        31.7367  -45.3553  -53.2637 H         1 UNK         0.0680 
     73 H73        31.7845  -45.0366  -51.5443 H         1 UNK         0.0680 
     74 H74        32.1359  -41.5281  -53.5579 H         1 UNK         0.0650 
     75 H75        31.0027  -42.5632  -52.7206 H         1 UNK         0.0650 
     76 H76        33.3119  -43.3932  -55.5922 H         1 UNK         0.1397 
     77 H77        30.0837  -44.3153  -58.2561 H         1 UNK         0.1363 
     78 H78        29.2577  -42.8258  -54.3209 H         1 UNK         0.1355 
     79 H79        27.7380  -44.5823  -57.0044 H         1 UNK         0.0707 
     80 H80        27.4452  -43.4550  -55.7074 H         1 UNK         0.0707 
     81 H81        25.9314  -41.7981  -56.1615 H         1 UNK         0.1034 
     82 H82        25.9369  -40.6338  -57.4398 H         1 UNK         0.1034 
     83 H83        23.8597  -41.9485  -57.4431 H         1 UNK         0.0482 
     84 H84        24.2548  -42.8792  -61.2450 H         1 UNK         0.3460 
     85 H85        24.3284  -44.0695  -59.9748 H         1 UNK         0.3460 
     86 H86        24.9303  -44.4667  -58.3179 H         1 UNK         0.2989 
     87 H87        24.4448  -46.1657  -55.3105 H         1 UNK         0.0559 
     88 H88        22.5516  -46.2390  -57.7182 H         1 UNK         0.0848 
     89 H89        22.0805  -46.0210  -56.0406 H         1 UNK         0.0848 
     90 H90        22.7931  -47.5416  -56.5548 H         1 UNK         0.0848 
     91 H91        25.9209  -47.1410  -56.5546 H         1 UNK         0.3144 
     92 H92        26.1757  -48.1693  -59.8016 H         1 UNK         0.0727 
     93 H93        28.5081  -47.2966  -60.0303 H         1 UNK         0.0790 
     94 H94        28.1559  -46.0209  -58.8683 H         1 UNK         0.0790 
     95 H95        27.3242  -46.0576  -60.4145 H         1 UNK         0.0790 
     96 H96        28.0614  -48.1589  -57.5934 H         1 UNK         0.3215 
     97 H97        26.3857  -50.4822  -55.5912 H         1 UNK         0.0863 
     98 H98        28.2822  -52.0874  -55.8756 H         1 UNK         0.0808 
     99 H99        28.6648  -51.3702  -57.4408 H         1 UNK         0.0808 
    100 H100       27.1405  -52.2127  -57.2046 H         1 UNK         0.0808 
    101 H101       29.1334  -49.7111  -55.6017 H         1 UNK         0.3118 
    102 H102       28.8194  -46.3816  -54.5658 H         1 UNK         0.0546 
    103 H103       29.8437  -46.9181  -52.3965 H         1 UNK         0.0828 
    104 H104       29.4348  -48.6275  -52.5795 H         1 UNK         0.0828 
    105 H105       28.1685  -47.4271  -52.3663 H         1 UNK         0.0828 
    106 H106       31.0852  -48.0493  -54.3561 H         1 UNK         0.3005 
    107 H107       31.8220  -48.5465  -57.7499 H         1 UNK         0.1257 
    108 H108       32.9729  -46.2328  -56.1345 H         1 UNK         0.0775 
    109 H109       34.0251  -47.2996  -57.0162 H         1 UNK         0.0775 
    110 H110       33.8355  -44.0966  -57.7742 H         1 UNK         0.0840 
    111 H111       32.6497  -43.7029  -58.9915 H         1 UNK         0.0840 
    112 H112       33.5667  -49.0519  -55.7092 H         1 UNK         0.2987 
    113 H113       32.3524  -52.3792  -55.1187 H         1 UNK         0.0785 
    114 H114       33.6904  -51.9340  -57.2449 H         1 UNK         0.0798 
    115 H115       34.6255  -52.7056  -55.9832 H         1 UNK         0.0798 
    116 H116       34.8253  -50.9851  -56.2933 H         1 UNK         0.0798 
    117 H117       33.3159  -50.1979  -53.5770 H         1 UNK         0.3079 
    118 H118       34.5469  -52.3510  -51.0362 H         1 UNK         0.0794 
    119 H119       36.2465  -50.2818  -52.5289 H         1 UNK         0.0786 
    120 H120       36.7172  -51.9367  -52.1687 H         1 UNK         0.0786 
    121 H121       36.4866  -50.7899  -50.8579 H         1 UNK         0.0786 
    122 H122       34.2837  -49.4965  -51.1833 H         1 UNK         0.3032 
    123 H123       30.8412  -49.2635  -50.7852 H         1 UNK         0.1094 
    124 H124       31.0873  -48.3380  -48.4945 H         1 UNK         0.0794 
    125 H125       31.1877  -50.0888  -48.4493 H         1 UNK         0.0794 
    126 H126       32.6547  -49.1294  -48.3152 H         1 UNK         0.0794 
    127 H127       32.7908  -47.3576  -50.0561 H         1 UNK         0.3016 
@<TRIPOS>BOND
     1    1    2 1    
     2    1   67 1    
     3    1   68 1    
     4    1   69 1    
     5    2    3 2    
     6    2    4 am   BACKBONE|DICT|INTERRES
     7    4    5 1    
     8    4   70 1    
     9    5    6 1    
    10    5   65 1    
    11    5   71 1    
    12    6    7 1    
    13    6   72 1    
    14    6   73 1    
    15    7    8 1    
    16    8    9 1    
    17    8   74 1    
    18    8   75 1    
    19    9   10 ar   
    20    9   14 ar   
    21   10   11 ar   
    22   10   76 1    
    23   11   12 ar   
    24   11   48 1    
    25   12   13 ar   
    26   12   77 1    
    27   13   14 ar   
    28   13   15 1    
    29   14   78 1    
    30   15   16 1    
    31   15   79 1    
    32   15   80 1    
    33   16   17 1    
    34   17   18 1    
    35   17   81 1    
    36   17   82 1    
    37   18   19 1    
    38   18   22 1    
    39   18   83 1    
    40   19   20 am   BACKBONE|DICT|INTERRES
    41   19   21 2    
    42   20   84 1    
    43   20   85 1    
    44   22   23 am   BACKBONE|DICT|INTERRES
    45   22   86 1    
    46   23   24 2    
    47   23   25 1    
    48   25   26 1    
    49   25   27 1    
    50   25   87 1    
    51   26   88 1    
    52   26   89 1    
    53   26   90 1    
    54   27   28 am   BACKBONE|DICT|INTERRES
    55   27   91 1    
    56   28   29 2    
    57   28   30 1    
    58   30   31 1    
    59   30   32 1    
    60   30   92 1    
    61   31   93 1    
    62   31   94 1    
    63   31   95 1    
    64   32   33 am   BACKBONE|DICT|INTERRES
    65   32   96 1    
    66   33   34 2    
    67   33   35 1    
    68   35   36 1    
    69   35   37 1    
    70   35   97 1    
    71   36   98 1    
    72   36   99 1    
    73   36  100 1    
    74   37   38 am   BACKBONE|DICT|INTERRES
    75   37  101 1    
    76   38   39 2    
    77   38   40 1    
    78   40   41 1    
    79   40   42 1    
    80   40  102 1    
    81   41  103 1    
    82   41  104 1    
    83   41  105 1    
    84   42   43 am   BACKBONE|DICT|INTERRES
    85   42  106 1    
    86   43   44 2    
    87   43   45 1    
    88   45   46 1    
    89   45   49 1    
    90   45  107 1    
    91   46   47 1    
    92   46  108 1    
    93   46  109 1    
    94   47   48 1    
    95   48  110 1    
    96   48  111 1    
    97   49   50 am   BACKBONE|DICT|INTERRES
    98   49  112 1    
    99   50   51 2    
   100   50   52 1    
   101   52   53 1    
   102   52   54 1    
   103   52  113 1    
   104   53  114 1    
   105   53  115 1    
   106   53  116 1    
   107   54   55 am   BACKBONE|DICT|INTERRES
   108   54  117 1    
   109   55   56 2    
   110   55   57 1    
   111   57   58 1    
   112   57   59 1    
   113   57  118 1    
   114   58  119 1    
   115   58  120 1    
   116   58  121 1    
   117   59   60 am   BACKBONE|DICT|INTERRES
   118   59  122 1    
   119   60   61 2    
   120   60   62 1    
   121   62   63 1    
   122   62   64 1    
   123   62  123 1    
   124   63  124 1    
   125   63  125 1    
   126   63  126 1    
   127   64   65 am   BACKBONE|DICT|INTERRES
   128   64  127 1    
   129   65   66 2    
@<TRIPOS>SUBSTRUCTURE
     1 UNK         1 GROUP             0       ****    0 ROOT    
