@<TRIPOS>MOLECULE
3R134
127   129    1
SMALL
USER_CHARGES


@<TRIPOS>ATOM
      1 CA         37.0943  -42.9735  -52.5224 C.3       0 UNK        -0.1968 
      2 C          36.7344  -44.2367  -53.2906 C.2       0 UNK         0.4852 
      3 O          37.6295  -44.9727  -53.7083 O.2       0 UNK        -0.5359 
      4 N          35.4320  -44.4881  -53.4819 N.am      1 UNK        -0.4300 
      5 CA         34.8963  -45.6583  -54.1897 C.3       1 UNK         0.0863 
      6 C6         33.3924  -45.4976  -54.5186 C.3       11 UNK        -0.0953 
      7 S7         33.0716  -44.1257  -55.6751 S.3       11 UNK        -0.2369 
      8 C8         32.1646  -42.9455  -54.6281 C.3       11 UNK         0.0226 
      9 C9         30.7862  -43.4637  -54.2425 C.ar      11 UNK        -0.0699 
     10 C10        30.5495  -43.9506  -52.9542 C.ar      11 UNK        -0.0804 
     11 C11        29.2823  -44.4141  -52.5932 C.ar      11 UNK        -0.0871 
     12 C12        28.2417  -44.3672  -53.5261 C.ar      11 UNK        -0.1008 
     13 C13        28.4616  -43.8828  -54.8195 C.ar      11 UNK        -0.0735 
     14 C14        29.7424  -43.4409  -55.1717 C.ar      11 UNK        -0.0945 
     15 C15        27.3110  -43.8715  -55.8221 C.3       11 UNK         0.0169 
     16 S16        27.1226  -42.2805  -56.6971 S.3       11 UNK        -0.2669 
     17 C17        28.1101  -42.5687  -58.2090 C.3       11 UNK        -0.0850 
     18 CA         27.2575  -42.5484  -59.5129 C.3       10 UNK         0.0855 
     19 C          28.1376  -42.6529  -60.7967 C.2       10 UNK         0.5543 
     20 N          27.6783  -43.2965  -61.8631 N.am      10 UNK        -0.7343 
     21 O          29.2412  -42.1146  -60.8420 O.2       10 UNK        -0.5027 
     22 N          26.1007  -43.4657  -59.4816 N.am      10 UNK        -0.4495 
     23 C          26.1472  -44.7958  -59.3397 C.2       10 UNK         0.4903 
     24 O          27.1860  -45.4496  -59.2244 O.2       10 UNK        -0.4860 
     25 CA         24.7950  -45.5237  -59.3711 C.3       9 UNK         0.0227 
     26 CB         24.5450  -46.1379  -60.7578 C.3       9 UNK        -0.1964 
     27 N          24.7584  -46.5823  -58.3653 N.am      9 UNK        -0.4231 
     28 C          24.5906  -46.3962  -57.0524 C.2       9 UNK         0.5014 
     29 O          24.3281  -45.3031  -56.5503 O.2       9 UNK        -0.5270 
     30 CA         24.7335  -47.6230  -56.1312 C.3       8 UNK         0.0284 
     31 CB         23.3981  -48.3825  -56.0112 C.3       8 UNK        -0.1977 
     32 N          25.8391  -48.5373  -56.4579 N.am      8 UNK        -0.4342 
     33 C          26.0136  -49.3072  -57.5456 C.2       8 UNK         0.5039 
     34 O          25.2478  -49.3125  -58.5107 O.2       8 UNK        -0.5547 
     35 CA         27.2554  -50.2186  -57.5861 C.3       7 UNK         0.0281 
     36 CB         28.3315  -49.6056  -58.4965 C.3       7 UNK        -0.1963 
     37 N          27.8255  -50.4812  -56.2616 N.am      7 UNK        -0.4444 
     38 C          27.2299  -51.2294  -55.3186 C.2       7 UNK         0.5104 
     39 O          26.1995  -51.8736  -55.5182 O.2       7 UNK        -0.5100 
     40 CA         27.8553  -51.2552  -53.9085 C.3       6 UNK         0.0396 
     41 CB         28.5116  -52.6187  -53.6414 C.3       6 UNK        -0.1801 
     42 N          28.8321  -50.1936  -53.6432 N.am      6 UNK        -0.4747 
     43 C          28.5866  -48.8719  -53.6699 C.2       6 UNK         0.5012 
     44 O          27.4831  -48.3952  -53.9419 O.2       6 UNK        -0.5003 
     45 CA         29.7963  -47.9296  -53.4445 C.3       5 UNK         0.0782 
     46 C46        29.9666  -47.5405  -51.9515 C.3       11 UNK        -0.0868 
     47 S47        28.5222  -46.7032  -51.2057 S.3       11 UNK        -0.2515 
     48 C48        29.0375  -44.9564  -51.1920 C.3       11 UNK         0.0199 
     49 N          31.0426  -48.5045  -53.9758 N.am      5 UNK        -0.4607 
     50 C          31.2293  -48.8970  -55.2481 C.2       4 UNK         0.5031 
     51 O          30.4121  -48.6823  -56.1419 O.2       4 UNK        -0.5119 
     52 CA         32.4794  -49.7350  -55.5826 C.3       4 UNK         0.0263 
     53 CB         33.4014  -49.0176  -56.5824 C.3       4 UNK        -0.1967 
     54 N          33.2415  -50.1710  -54.4069 N.am      4 UNK        -0.4237 
     55 C          32.8177  -51.1127  -53.5475 C.2       3 UNK         0.4908 
     56 O          31.7480  -51.7090  -53.6740 O.2       3 UNK        -0.5102 
     57 CA         33.6966  -51.4226  -52.3208 C.3       3 UNK         0.0241 
     58 CB         34.5830  -52.6481  -52.5942 C.3       3 UNK        -0.1971 
     59 N          34.5377  -50.3061  -51.8800 N.am      3 UNK        -0.4139 
     60 C          34.0870  -49.1105  -51.4760 C.2       2 UNK         0.5016 
     61 O          32.8922  -48.8149  -51.4237 O.2       2 UNK        -0.5319 
     62 CA         35.1353  -48.0327  -51.1356 C.3       2 UNK         0.0286 
     63 CB         36.5883  -48.5556  -51.0558 C.3       2 UNK        -0.1963 
     64 N          35.0491  -46.9056  -52.0727 N.am      2 UNK        -0.4790 
     65 C          35.1217  -46.9708  -53.4131 C.2       1 UNK         0.5024 
     66 O          35.3351  -48.0112  -54.0385 O.2       1 UNK        -0.4888 
     67 H67        37.7142  -42.3235  -53.1393 H         1 UNK         0.0892 
     68 H68        36.2103  -42.4117  -52.2212 H         1 UNK         0.0892 
     69 H69        37.6562  -43.2282  -51.6242 H         1 UNK         0.0892 
     70 H70        34.7472  -43.8330  -53.1353 H         1 UNK         0.3107 
     71 H71        35.4411  -45.7534  -55.1318 H         1 UNK         0.0773 
     72 H72        32.8160  -45.3684  -53.6029 H         1 UNK         0.0680 
     73 H73        32.9948  -46.3973  -54.9868 H         1 UNK         0.0680 
     74 H74        32.0559  -42.0068  -55.1732 H         1 UNK         0.0650 
     75 H75        32.7565  -42.7145  -53.7415 H         1 UNK         0.0650 
     76 H76        31.3539  -43.9697  -52.2317 H         1 UNK         0.1397 
     77 H77        27.2607  -44.7252  -53.2433 H         1 UNK         0.1363 
     78 H78        29.9340  -43.0695  -56.1676 H         1 UNK         0.1355 
     79 H79        27.4382  -44.6897  -56.5315 H         1 UNK         0.0707 
     80 H80        26.3707  -44.0672  -55.3053 H         1 UNK         0.0707 
     81 H81        28.6583  -43.5087  -58.1319 H         1 UNK         0.1034 
     82 H82        28.8714  -41.7874  -58.2460 H         1 UNK         0.1034 
     83 H83        26.8156  -41.5536  -59.5780 H         1 UNK         0.0482 
     84 H84        26.7715  -43.7335  -61.8433 H         1 UNK         0.3460 
     85 H85        28.2487  -43.3495  -62.6925 H         1 UNK         0.3460 
     86 H86        25.1990  -43.0225  -59.5845 H         1 UNK         0.2989 
     87 H87        23.9946  -44.8120  -59.1572 H         1 UNK         0.0559 
     88 H88        25.3168  -46.8620  -61.0232 H         1 UNK         0.0848 
     89 H89        24.5374  -45.3694  -61.5317 H         1 UNK         0.0848 
     90 H90        23.5816  -46.6466  -60.7984 H         1 UNK         0.0848 
     91 H91        24.9731  -47.5305  -58.6705 H         1 UNK         0.3144 
     92 H92        24.9739  -47.2334  -55.1403 H         1 UNK         0.0727 
     93 H93        22.6026  -47.7185  -55.6703 H         1 UNK         0.0790 
     94 H94        23.4706  -49.1983  -55.2919 H         1 UNK         0.0790 
     95 H95        23.0809  -48.8041  -56.9655 H         1 UNK         0.0790 
     96 H96        26.5488  -48.5938  -55.7326 H         1 UNK         0.3215 
     97 H97        26.9470  -51.1736  -58.0169 H         1 UNK         0.0863 
     98 H98        29.2209  -50.2341  -58.5451 H         1 UNK         0.0808 
     99 H99        28.6363  -48.6166  -58.1514 H         1 UNK         0.0808 
    100 H100       27.9590  -49.4903  -59.5153 H         1 UNK         0.0808 
    101 H101       28.6741  -49.9787  -56.0263 H         1 UNK         0.3118 
    102 H102       27.0386  -51.1259  -53.1956 H         1 UNK         0.0546 
    103 H103       27.7908  -53.4296  -53.7558 H         1 UNK         0.0828 
    104 H104       28.9078  -52.6802  -52.6277 H         1 UNK         0.0828 
    105 H105       29.3313  -52.8128  -54.3342 H         1 UNK         0.0828 
    106 H106       29.7808  -50.5005  -53.4635 H         1 UNK         0.3005 
    107 H107       29.5979  -47.0192  -54.0147 H         1 UNK         0.1257 
    108 H108       30.8411  -46.8981  -51.8352 H         1 UNK         0.0775 
    109 H109       30.1755  -48.4304  -51.3550 H         1 UNK         0.0775 
    110 H110       28.2573  -44.3627  -50.7137 H         1 UNK         0.0840 
    111 H111       29.9263  -44.8528  -50.5674 H         1 UNK         0.0840 
    112 H112       31.7563  -48.7193  -53.2887 H         1 UNK         0.2987 
    113 H113       32.1104  -50.6338  -56.0818 H         1 UNK         0.0785 
    114 H114       32.8529  -48.7273  -57.4797 H         1 UNK         0.0798 
    115 H115       34.2171  -49.6667  -56.9009 H         1 UNK         0.0798 
    116 H116       33.8413  -48.1136  -56.1680 H         1 UNK         0.0798 
    117 H117       34.1106  -49.6807  -54.2197 H         1 UNK         0.3079 
    118 H118       33.0219  -51.6659  -51.4973 H         1 UNK         0.0794 
    119 H119       35.3028  -52.4563  -53.3912 H         1 UNK         0.0786 
    120 H120       33.9807  -53.5055  -52.8985 H         1 UNK         0.0786 
    121 H121       35.1373  -52.9450  -51.7036 H         1 UNK         0.0786 
    122 H122       35.5368  -50.4452  -51.9252 H         1 UNK         0.3032 
    123 H123       34.8642  -47.6503  -50.1500 H         1 UNK         0.1094 
    124 H124       37.2668  -47.7634  -50.7388 H         1 UNK         0.0794 
    125 H125       36.6803  -49.3607  -50.3254 H         1 UNK         0.0794 
    126 H126       36.9518  -48.9279  -52.0143 H         1 UNK         0.0794 
    127 H127       34.8487  -46.0068  -51.6576 H         1 UNK         0.3016 
@<TRIPOS>BOND
     1    1    2 1    
     2    1   67 1    
     3    1   68 1    
     4    1   69 1    
     5    2    3 2    
     6    2    4 am   BACKBONE|DICT|INTERRES
     7    4    5 1    
     8    4   70 1    
     9    5    6 1    
    10    5   65 1    
    11    5   71 1    
    12    6    7 1    
    13    6   72 1    
    14    6   73 1    
    15    7    8 1    
    16    8    9 1    
    17    8   74 1    
    18    8   75 1    
    19    9   10 ar   
    20    9   14 ar   
    21   10   11 ar   
    22   10   76 1    
    23   11   12 ar   
    24   11   48 1    
    25   12   13 ar   
    26   12   77 1    
    27   13   14 ar   
    28   13   15 1    
    29   14   78 1    
    30   15   16 1    
    31   15   79 1    
    32   15   80 1    
    33   16   17 1    
    34   17   18 1    
    35   17   81 1    
    36   17   82 1    
    37   18   19 1    
    38   18   22 1    
    39   18   83 1    
    40   19   20 am   BACKBONE|DICT|INTERRES
    41   19   21 2    
    42   20   84 1    
    43   20   85 1    
    44   22   23 am   BACKBONE|DICT|INTERRES
    45   22   86 1    
    46   23   24 2    
    47   23   25 1    
    48   25   26 1    
    49   25   27 1    
    50   25   87 1    
    51   26   88 1    
    52   26   89 1    
    53   26   90 1    
    54   27   28 am   BACKBONE|DICT|INTERRES
    55   27   91 1    
    56   28   29 2    
    57   28   30 1    
    58   30   31 1    
    59   30   32 1    
    60   30   92 1    
    61   31   93 1    
    62   31   94 1    
    63   31   95 1    
    64   32   33 am   BACKBONE|DICT|INTERRES
    65   32   96 1    
    66   33   34 2    
    67   33   35 1    
    68   35   36 1    
    69   35   37 1    
    70   35   97 1    
    71   36   98 1    
    72   36   99 1    
    73   36  100 1    
    74   37   38 am   BACKBONE|DICT|INTERRES
    75   37  101 1    
    76   38   39 2    
    77   38   40 1    
    78   40   41 1    
    79   40   42 1    
    80   40  102 1    
    81   41  103 1    
    82   41  104 1    
    83   41  105 1    
    84   42   43 am   BACKBONE|DICT|INTERRES
    85   42  106 1    
    86   43   44 2    
    87   43   45 1    
    88   45   46 1    
    89   45   49 1    
    90   45  107 1    
    91   46   47 1    
    92   46  108 1    
    93   46  109 1    
    94   47   48 1    
    95   48  110 1    
    96   48  111 1    
    97   49   50 am   BACKBONE|DICT|INTERRES
    98   49  112 1    
    99   50   51 2    
   100   50   52 1    
   101   52   53 1    
   102   52   54 1    
   103   52  113 1    
   104   53  114 1    
   105   53  115 1    
   106   53  116 1    
   107   54   55 am   BACKBONE|DICT|INTERRES
   108   54  117 1    
   109   55   56 2    
   110   55   57 1    
   111   57   58 1    
   112   57   59 1    
   113   57  118 1    
   114   58  119 1    
   115   58  120 1    
   116   58  121 1    
   117   59   60 am   BACKBONE|DICT|INTERRES
   118   59  122 1    
   119   60   61 2    
   120   60   62 1    
   121   62   63 1    
   122   62   64 1    
   123   62  123 1    
   124   63  124 1    
   125   63  125 1    
   126   63  126 1    
   127   64   65 am   BACKBONE|DICT|INTERRES
   128   64  127 1    
   129   65   66 2    
@<TRIPOS>SUBSTRUCTURE
     1 UNK         1 GROUP             0       ****    0 ROOT    
