@<TRIPOS>MOLECULE
3R134
127   129    1
SMALL
USER_CHARGES


@<TRIPOS>ATOM
      1 CA         32.5065  -42.3935  -51.5168 C.3       0 UNK        -0.1968 
      2 C          33.7306  -43.2794  -51.3340 C.2       0 UNK         0.4852 
      3 O          34.4784  -43.1016  -50.3709 O.2       0 UNK        -0.5359 
      4 N          33.9445  -44.2199  -52.2617 N.am      1 UNK        -0.4300 
      5 CA         35.0446  -45.1891  -52.2591 C.3       1 UNK         0.0863 
      6 C6         35.1251  -45.9927  -53.5853 C.3       11 UNK        -0.0953 
      7 S7         35.0613  -44.9797  -55.0999 S.3       11 UNK        -0.2369 
      8 C8         33.5680  -45.6439  -55.9060 C.3       11 UNK         0.0226 
      9 C9         32.2996  -44.9511  -55.4275 C.ar      11 UNK        -0.0699 
     10 C10        31.6868  -45.3218  -54.2259 C.ar      11 UNK        -0.0804 
     11 C11        30.4880  -44.7217  -53.8242 C.ar      11 UNK        -0.0871 
     12 C12        29.9212  -43.7202  -54.6198 C.ar      11 UNK        -0.1008 
     13 C13        30.5258  -43.3389  -55.8214 C.ar      11 UNK        -0.0735 
     14 C14        31.7140  -43.9584  -56.2174 C.ar      11 UNK        -0.0945 
     15 C15        29.9119  -42.2522  -56.6941 C.3       11 UNK         0.0169 
     16 S16        28.5795  -42.8950  -57.7614 S.3       11 UNK        -0.2669 
     17 C17        27.1275  -42.7733  -56.6596 C.3       11 UNK        -0.0850 
     18 CA         26.5923  -44.1652  -56.2143 C.3       10 UNK         0.0855 
     19 C          25.6302  -44.0811  -54.9900 C.2       10 UNK         0.5543 
     20 N          24.5584  -44.8629  -54.9204 N.am      10 UNK        -0.7343 
     21 O          25.8808  -43.3179  -54.0608 O.2       10 UNK        -0.5027 
     22 N          26.0949  -45.0048  -57.3171 N.am      10 UNK        -0.4495 
     23 C          25.0874  -44.7111  -58.1503 C.2       10 UNK         0.4903 
     24 O          24.5071  -43.6258  -58.1820 O.2       10 UNK        -0.4860 
     25 CA         24.6042  -45.8320  -59.0869 C.3       9 UNK         0.0227 
     26 CB         25.2486  -45.7052  -60.4763 C.3       9 UNK        -0.1964 
     27 N          24.8153  -47.1861  -58.5607 N.am      9 UNK        -0.4231 
     28 C          24.1636  -47.6887  -57.4961 C.2       9 UNK         0.5014 
     29 O          23.3989  -47.0134  -56.8045 O.2       9 UNK        -0.5270 
     30 CA         24.3589  -49.1723  -57.1270 C.3       8 UNK         0.0284 
     31 CB         23.0181  -49.9323  -57.1402 C.3       8 UNK        -0.1977 
     32 N          25.3184  -49.8515  -57.9947 N.am      8 UNK        -0.4342 
     33 C          26.0855  -50.8908  -57.6569 C.2       8 UNK         0.5039 
     34 O          26.0088  -51.4912  -56.5845 O.2       8 UNK        -0.5547 
     35 CA         27.1609  -51.2972  -58.6799 C.3       7 UNK         0.0281 
     36 CB         26.5565  -51.7317  -60.0317 C.3       7 UNK        -0.1963 
     37 N          28.1814  -50.2518  -58.8350 N.am      7 UNK        -0.4444 
     38 C          28.0353  -49.0081  -59.3172 C.2       7 UNK         0.5104 
     39 O          27.0084  -48.5869  -59.8580 O.2       7 UNK        -0.5100 
     40 CA         29.2130  -48.0594  -59.0306 C.3       6 UNK         0.0396 
     41 CB         28.9887  -46.6277  -59.5577 C.3       6 UNK        -0.1801 
     42 N          29.5391  -48.0275  -57.5988 N.am      6 UNK        -0.4747 
     43 C          28.7171  -47.7266  -56.5791 C.2       6 UNK         0.5012 
     44 O          27.5257  -47.4397  -56.7106 O.2       6 UNK        -0.5003 
     45 CA         29.3524  -47.7655  -55.1787 C.3       5 UNK         0.0782 
     46 C46        28.4547  -47.1646  -54.0663 C.3       11 UNK        -0.0868 
     47 S47        29.3872  -46.9424  -52.5118 S.3       11 UNK        -0.2515 
     48 C48        29.7918  -45.1608  -52.5396 C.3       11 UNK         0.0199 
     49 N          29.8118  -49.1123  -54.8303 N.am      5 UNK        -0.4607 
     50 C          30.9840  -49.6376  -55.1972 C.2       4 UNK         0.5031 
     51 O          31.7537  -49.1043  -56.0003 O.2       4 UNK        -0.5119 
     52 CA         31.3544  -50.9909  -54.5667 C.3       4 UNK         0.0263 
     53 CB         31.1969  -52.1238  -55.5940 C.3       4 UNK        -0.1967 
     54 N          32.7238  -50.9902  -54.0417 N.am      4 UNK        -0.4237 
     55 C          33.1685  -50.1807  -53.0694 C.2       3 UNK         0.4908 
     56 O          32.4512  -49.3831  -52.4588 O.2       3 UNK        -0.5102 
     57 CA         34.6626  -50.2714  -52.7227 C.3       3 UNK         0.0241 
     58 CB         35.5465  -49.9615  -53.9505 C.3       3 UNK        -0.1971 
     59 N          34.9377  -49.3146  -51.6538 N.am      3 UNK        -0.4139 
     60 C          36.0202  -49.2602  -50.8708 C.2       2 UNK         0.5016 
     61 O          36.9357  -50.0844  -50.9129 O.2       2 UNK        -0.5319 
     62 CA         36.1136  -48.0384  -49.9319 C.3       2 UNK         0.0286 
     63 CB         37.4020  -48.0301  -49.0875 C.3       2 UNK        -0.1963 
     64 N          36.0560  -46.8073  -50.7272 N.am      2 UNK        -0.4790 
     65 C          34.9228  -46.1982  -51.0992 C.2       1 UNK         0.5024 
     66 O          33.8131  -46.5037  -50.6561 O.2       1 UNK        -0.4888 
     67 H67        31.7675  -42.6112  -50.7463 H         1 UNK         0.0892 
     68 H68        32.7863  -41.3435  -51.4350 H         1 UNK         0.0892 
     69 H69        32.0387  -42.5406  -52.4902 H         1 UNK         0.0892 
     70 H70        33.3039  -44.3019  -53.0385 H         1 UNK         0.3107 
     71 H71        35.9726  -44.6274  -52.1325 H         1 UNK         0.0773 
     72 H72        34.3353  -46.7449  -53.6274 H         1 UNK         0.0680 
     73 H73        36.0596  -46.5560  -53.6208 H         1 UNK         0.0680 
     74 H74        33.6781  -45.5128  -56.9835 H         1 UNK         0.0650 
     75 H75        33.4921  -46.7213  -55.7494 H         1 UNK         0.0650 
     76 H76        32.1121  -46.1111  -53.6204 H         1 UNK         0.1397 
     77 H77        29.0006  -43.2445  -54.3110 H         1 UNK         0.1363 
     78 H78        32.1810  -43.6710  -57.1497 H         1 UNK         0.1355 
     79 H79        30.6800  -41.8175  -57.3356 H         1 UNK         0.0707 
     80 H80        29.5478  -41.4304  -56.0761 H         1 UNK         0.0707 
     81 H81        27.3988  -42.1701  -55.7926 H         1 UNK         0.1034 
     82 H82        26.3521  -42.1991  -57.1666 H         1 UNK         0.1034 
     83 H83        27.4542  -44.7094  -55.8369 H         1 UNK         0.0482 
     84 H84        23.9595  -44.8005  -54.1128 H         1 UNK         0.3460 
     85 H85        24.3254  -45.5050  -55.6683 H         1 UNK         0.3460 
     86 H86        26.4845  -45.9434  -57.3359 H         1 UNK         0.2989 
     87 H87        23.5276  -45.6986  -59.2127 H         1 UNK         0.0559 
     88 H88        24.8391  -46.4376  -61.1722 H         1 UNK         0.0848 
     89 H89        26.3273  -45.8476  -60.4403 H         1 UNK         0.0848 
     90 H90        25.0661  -44.7176  -60.9020 H         1 UNK         0.0848 
     91 H91        25.5236  -47.7341  -59.0382 H         1 UNK         0.3144 
     92 H92        24.7532  -49.1777  -56.1085 H         1 UNK         0.0727 
     93 H93        23.1384  -50.9583  -56.7923 H         1 UNK         0.0790 
     94 H94        22.5874  -49.9659  -58.1415 H         1 UNK         0.0790 
     95 H95        22.2877  -49.4559  -56.4849 H         1 UNK         0.0790 
     96 H96        25.5245  -49.4190  -58.8880 H         1 UNK         0.3215 
     97 H97        27.6781  -52.1639  -58.2643 H         1 UNK         0.0863 
     98 H98        27.3307  -52.0889  -60.7106 H         1 UNK         0.0808 
     99 H99        26.0224  -50.9255  -60.5343 H         1 UNK         0.0808 
    100 H100       25.8477  -52.5489  -59.8922 H         1 UNK         0.0808 
    101 H101       29.0615  -50.4538  -58.3816 H         1 UNK         0.3118 
    102 H102       30.0804  -48.4721  -59.5477 H         1 UNK         0.0546 
    103 H103       28.1677  -46.1291  -59.0439 H         1 UNK         0.0828 
    104 H104       28.7576  -46.6325  -60.6235 H         1 UNK         0.0828 
    105 H105       29.8792  -46.0141  -59.4222 H         1 UNK         0.0828 
    106 H106       30.4886  -48.2944  -57.3525 H         1 UNK         0.3005 
    107 H107       30.2286  -47.1282  -55.2691 H         1 UNK         0.1257 
    108 H108       28.0464  -46.1999  -54.3597 H         1 UNK         0.0775 
    109 H109       27.5951  -47.8091  -53.8744 H         1 UNK         0.0775 
    110 H110       28.8726  -44.5937  -52.3832 H         1 UNK         0.0840 
    111 H111       30.4390  -44.9354  -51.6909 H         1 UNK         0.0840 
    112 H112       29.2269  -49.6208  -54.1835 H         1 UNK         0.2987 
    113 H113       30.6816  -51.1881  -53.7293 H         1 UNK         0.0785 
    114 H114       31.4102  -53.0963  -55.1498 H         1 UNK         0.0798 
    115 H115       31.8630  -51.9902  -56.4477 H         1 UNK         0.0798 
    116 H116       30.1769  -52.1624  -55.9792 H         1 UNK         0.0798 
    117 H117       33.3827  -51.5976  -54.5063 H         1 UNK         0.3079 
    118 H118       34.8706  -51.2793  -52.3580 H         1 UNK         0.0794 
    119 H119       35.4073  -50.7010  -54.7394 H         1 UNK         0.0786 
    120 H120       36.6063  -49.9705  -53.6957 H         1 UNK         0.0786 
    121 H121       35.3152  -48.9845  -54.3762 H         1 UNK         0.0786 
    122 H122       34.1908  -48.6408  -51.5124 H         1 UNK         0.3032 
    123 H123       35.2639  -48.0850  -49.2463 H         1 UNK         0.1094 
    124 H124       38.2964  -47.9989  -49.7110 H         1 UNK         0.0794 
    125 H125       37.4303  -47.1705  -48.4176 H         1 UNK         0.0794 
    126 H126       37.4673  -48.9249  -48.4669 H         1 UNK         0.0794 
    127 H127       36.9220  -46.5257  -51.1662 H         1 UNK         0.3016 
@<TRIPOS>BOND
     1    1    2 1    
     2    1   67 1    
     3    1   68 1    
     4    1   69 1    
     5    2    3 2    
     6    2    4 am   BACKBONE|DICT|INTERRES
     7    4    5 1    
     8    4   70 1    
     9    5    6 1    
    10    5   65 1    
    11    5   71 1    
    12    6    7 1    
    13    6   72 1    
    14    6   73 1    
    15    7    8 1    
    16    8    9 1    
    17    8   74 1    
    18    8   75 1    
    19    9   10 ar   
    20    9   14 ar   
    21   10   11 ar   
    22   10   76 1    
    23   11   12 ar   
    24   11   48 1    
    25   12   13 ar   
    26   12   77 1    
    27   13   14 ar   
    28   13   15 1    
    29   14   78 1    
    30   15   16 1    
    31   15   79 1    
    32   15   80 1    
    33   16   17 1    
    34   17   18 1    
    35   17   81 1    
    36   17   82 1    
    37   18   19 1    
    38   18   22 1    
    39   18   83 1    
    40   19   20 am   BACKBONE|DICT|INTERRES
    41   19   21 2    
    42   20   84 1    
    43   20   85 1    
    44   22   23 am   BACKBONE|DICT|INTERRES
    45   22   86 1    
    46   23   24 2    
    47   23   25 1    
    48   25   26 1    
    49   25   27 1    
    50   25   87 1    
    51   26   88 1    
    52   26   89 1    
    53   26   90 1    
    54   27   28 am   BACKBONE|DICT|INTERRES
    55   27   91 1    
    56   28   29 2    
    57   28   30 1    
    58   30   31 1    
    59   30   32 1    
    60   30   92 1    
    61   31   93 1    
    62   31   94 1    
    63   31   95 1    
    64   32   33 am   BACKBONE|DICT|INTERRES
    65   32   96 1    
    66   33   34 2    
    67   33   35 1    
    68   35   36 1    
    69   35   37 1    
    70   35   97 1    
    71   36   98 1    
    72   36   99 1    
    73   36  100 1    
    74   37   38 am   BACKBONE|DICT|INTERRES
    75   37  101 1    
    76   38   39 2    
    77   38   40 1    
    78   40   41 1    
    79   40   42 1    
    80   40  102 1    
    81   41  103 1    
    82   41  104 1    
    83   41  105 1    
    84   42   43 am   BACKBONE|DICT|INTERRES
    85   42  106 1    
    86   43   44 2    
    87   43   45 1    
    88   45   46 1    
    89   45   49 1    
    90   45  107 1    
    91   46   47 1    
    92   46  108 1    
    93   46  109 1    
    94   47   48 1    
    95   48  110 1    
    96   48  111 1    
    97   49   50 am   BACKBONE|DICT|INTERRES
    98   49  112 1    
    99   50   51 2    
   100   50   52 1    
   101   52   53 1    
   102   52   54 1    
   103   52  113 1    
   104   53  114 1    
   105   53  115 1    
   106   53  116 1    
   107   54   55 am   BACKBONE|DICT|INTERRES
   108   54  117 1    
   109   55   56 2    
   110   55   57 1    
   111   57   58 1    
   112   57   59 1    
   113   57  118 1    
   114   58  119 1    
   115   58  120 1    
   116   58  121 1    
   117   59   60 am   BACKBONE|DICT|INTERRES
   118   59  122 1    
   119   60   61 2    
   120   60   62 1    
   121   62   63 1    
   122   62   64 1    
   123   62  123 1    
   124   63  124 1    
   125   63  125 1    
   126   63  126 1    
   127   64   65 am   BACKBONE|DICT|INTERRES
   128   64  127 1    
   129   65   66 2    
@<TRIPOS>SUBSTRUCTURE
     1 UNK         1 GROUP             0       ****    0 ROOT    
