@<TRIPOS>MOLECULE
3R134
127   129    1
SMALL
USER_CHARGES


@<TRIPOS>ATOM
      1 CA         40.1740  -46.5568  -52.5205 C.3       0 UNK        -0.1968 
      2 C          38.6666  -46.3583  -52.4649 C.2       0 UNK         0.4852 
      3 O          38.0817  -46.4329  -51.3827 O.2       0 UNK        -0.5359 
      4 N          38.0340  -46.1190  -53.6231 N.am      1 UNK        -0.4300 
      5 CA         36.5963  -45.8883  -53.8384 C.3       1 UNK         0.0863 
      6 C6         36.0289  -44.7045  -53.0048 C.3       11 UNK        -0.0953 
      7 S7         34.7253  -43.7777  -53.8767 S.3       11 UNK        -0.2369 
      8 C8         33.2279  -44.5880  -53.2303 C.3       11 UNK         0.0226 
      9 C9         31.9482  -43.9374  -53.7410 C.ar      11 UNK        -0.0699 
     10 C10        30.9553  -43.5517  -52.8367 C.ar      11 UNK        -0.0804 
     11 C11        29.7621  -42.9823  -53.2912 C.ar      11 UNK        -0.0871 
     12 C12        29.5804  -42.7634  -54.6586 C.ar      11 UNK        -0.1008 
     13 C13        30.5489  -43.1750  -55.5777 C.ar      11 UNK        -0.0735 
     14 C14        31.7310  -43.7581  -55.1121 C.ar      11 UNK        -0.0945 
     15 C15        30.3159  -43.0056  -57.0721 C.3       11 UNK         0.0169 
     16 S16        29.1602  -44.2587  -57.7174 S.3       11 UNK        -0.2669 
     17 C17        27.5475  -43.4862  -57.3333 C.3       11 UNK        -0.0850 
     18 CA         26.3689  -44.0008  -58.1955 C.3       10 UNK         0.0855 
     19 C          26.5239  -43.6460  -59.7055 C.2       10 UNK         0.5543 
     20 N          26.5646  -44.6064  -60.6224 N.am      10 UNK        -0.7343 
     21 O          26.5909  -42.4688  -60.0513 O.2       10 UNK        -0.5027 
     22 N          26.0698  -45.4114  -57.9125 N.am      10 UNK        -0.4495 
     23 C          24.8815  -45.9880  -58.1372 C.2       10 UNK         0.4903 
     24 O          23.8807  -45.3629  -58.4931 O.2       10 UNK        -0.4860 
     25 CA         24.7926  -47.5159  -57.9431 C.3       9 UNK         0.0227 
     26 CB         23.6729  -48.1540  -58.7912 C.3       9 UNK        -0.1964 
     27 N          26.0580  -48.2254  -58.1646 N.am      9 UNK        -0.4231 
     28 C          26.8369  -48.2114  -59.2593 C.2       9 UNK         0.5014 
     29 O          26.5860  -47.5501  -60.2680 O.2       9 UNK        -0.5270 
     30 CA         28.1239  -49.0559  -59.2201 C.3       8 UNK         0.0284 
     31 CB         29.3643  -48.1809  -59.4796 C.3       8 UNK        -0.1977 
     32 N          28.2759  -49.7425  -57.9325 N.am      8 UNK        -0.4342 
     33 C          28.0365  -51.0454  -57.7333 C.2       8 UNK         0.5039 
     34 O          27.7602  -51.8362  -58.6362 O.2       8 UNK        -0.5547 
     35 CA         28.0869  -51.5637  -56.2860 C.3       7 UNK         0.0281 
     36 CB         29.5031  -52.0360  -55.9186 C.3       7 UNK        -0.1963 
     37 N          27.6035  -50.6123  -55.2792 N.am      7 UNK        -0.4444 
     38 C          26.3260  -50.2226  -55.1518 C.2       7 UNK         0.5104 
     39 O          25.4451  -50.4977  -55.9651 O.2       7 UNK        -0.5100 
     40 CA         25.9655  -49.3884  -53.9138 C.3       6 UNK         0.0396 
     41 CB         25.9330  -50.2753  -52.6584 C.3       6 UNK        -0.1801 
     42 N          26.9242  -48.3055  -53.7146 N.am      6 UNK        -0.4747 
     43 C          26.7207  -47.0243  -54.0552 C.2       6 UNK         0.5012 
     44 O          25.6599  -46.5916  -54.5064 O.2       6 UNK        -0.5003 
     45 CA         27.9278  -46.0714  -53.8939 C.3       5 UNK         0.0782 
     46 C46        27.9266  -45.4028  -52.4884 C.3       11 UNK        -0.0868 
     47 S47        27.1924  -43.7305  -52.5335 S.3       11 UNK        -0.2515 
     48 C48        28.6482  -42.6500  -52.3085 C.3       11 UNK         0.0199 
     49 N          29.2121  -46.7181  -54.1987 N.am      5 UNK        -0.4607 
     50 C          29.5002  -47.3547  -55.3439 C.2       4 UNK         0.5031 
     51 O          28.7222  -47.4392  -56.2936 O.2       4 UNK        -0.5119 
     52 CA         30.8354  -48.1151  -55.4227 C.3       4 UNK         0.0263 
     53 CB         31.9072  -47.2713  -56.1252 C.3       4 UNK        -0.1967 
     54 N          31.3525  -48.6149  -54.1410 N.am      4 UNK        -0.4237 
     55 C          30.6906  -49.4010  -53.2761 C.2       3 UNK         0.4908 
     56 O          29.5142  -49.7339  -53.4356 O.2       3 UNK        -0.5102 
     57 CA         31.4456  -49.9122  -52.0328 C.3       3 UNK         0.0241 
     58 CB         30.9946  -51.3338  -51.6471 C.3       3 UNK        -0.1971 
     59 N          32.9036  -49.9093  -52.1887 N.am      3 UNK        -0.4139 
     60 C          33.7083  -48.8636  -51.9624 C.2       2 UNK         0.5016 
     61 O          33.2930  -47.7551  -51.6176 O.2       2 UNK        -0.5319 
     62 CA         35.2245  -49.0954  -52.1390 C.3       2 UNK         0.0286 
     63 CB         35.5745  -50.2735  -53.0781 C.3       2 UNK        -0.1963 
     64 N          35.9301  -47.8796  -52.5581 N.am      2 UNK        -0.4790 
     65 C          35.7461  -47.1687  -53.6794 C.2       1 UNK         0.5024 
     66 O          34.9616  -47.4896  -54.5732 O.2       1 UNK        -0.4888 
     67 H67        40.4361  -47.5445  -52.1420 H         1 UNK         0.0892 
     68 H68        40.5613  -46.4687  -53.5355 H         1 UNK         0.0892 
     69 H69        40.6728  -45.8112  -51.9017 H         1 UNK         0.0892 
     70 H70        38.5849  -46.1057  -54.4708 H         1 UNK         0.3107 
     71 H71        36.5332  -45.6137  -54.8930 H         1 UNK         0.0773 
     72 H72        35.6764  -45.0264  -52.0228 H         1 UNK         0.0680 
     73 H73        36.8216  -43.9824  -52.8034 H         1 UNK         0.0680 
     74 H74        33.2611  -44.5654  -52.1399 H         1 UNK         0.0650 
     75 H75        33.2266  -45.6390  -53.5157 H         1 UNK         0.0650 
     76 H76        31.1010  -43.7173  -51.7779 H         1 UNK         0.1397 
     77 H77        28.6637  -42.3090  -55.0052 H         1 UNK         0.1363 
     78 H78        32.4860  -44.0755  -55.8181 H         1 UNK         0.1355 
     79 H79        31.2596  -43.1000  -57.6115 H         1 UNK         0.0707 
     80 H80        29.9483  -42.0009  -57.2847 H         1 UNK         0.0707 
     81 H81        27.3193  -43.6605  -56.2822 H         1 UNK         0.1034 
     82 H82        27.6320  -42.4034  -57.4409 H         1 UNK         0.1034 
     83 H83        25.4966  -43.4313  -57.8682 H         1 UNK         0.0482 
     84 H84        26.6588  -44.3548  -61.5930 H         1 UNK         0.3460 
     85 H85        26.5171  -45.5861  -60.3599 H         1 UNK         0.3460 
     86 H86        26.8535  -45.9876  -57.6368 H         1 UNK         0.2989 
     87 H87        24.5412  -47.6715  -56.8930 H         1 UNK         0.0559 
     88 H88        23.8349  -47.9940  -59.8578 H         1 UNK         0.0848 
     89 H89        22.6990  -47.7309  -58.5419 H         1 UNK         0.0848 
     90 H90        23.6093  -49.2284  -58.6183 H         1 UNK         0.0848 
     91 H91        26.3501  -48.8209  -57.4024 H         1 UNK         0.3144 
     92 H92        28.0526  -49.7818  -60.0324 H         1 UNK         0.0727 
     93 H93        29.4386  -47.3540  -58.7734 H         1 UNK         0.0790 
     94 H94        29.3294  -47.7451  -60.4788 H         1 UNK         0.0790 
     95 H95        30.2832  -48.7633  -59.4130 H         1 UNK         0.0790 
     96 H96        28.4836  -49.1375  -57.1416 H         1 UNK         0.3215 
     97 H97        27.4300  -52.4354  -56.2408 H         1 UNK         0.0863 
     98 H98        29.5272  -52.4800  -54.9232 H         1 UNK         0.0808 
     99 H99        30.2246  -51.2210  -55.9369 H         1 UNK         0.0808 
    100 H100       29.8538  -52.7948  -56.6195 H         1 UNK         0.0808 
    101 H101       28.2748  -50.3263  -54.5672 H         1 UNK         0.3118 
    102 H102       24.9623  -48.9832  -54.0623 H         1 UNK         0.0546 
    103 H103       25.2324  -51.1022  -52.7824 H         1 UNK         0.0828 
    104 H104       25.6124  -49.7087  -51.7842 H         1 UNK         0.0828 
    105 H105       26.9107  -50.7054  -52.4363 H         1 UNK         0.0828 
    106 H106       27.8517  -48.5791  -53.4061 H         1 UNK         0.3005 
    107 H107       27.8142  -45.3013  -54.6588 H         1 UNK         0.1257 
    108 H108       28.9368  -45.3314  -52.0855 H         1 UNK         0.0775 
    109 H109       27.3835  -45.9968  -51.7501 H         1 UNK         0.0775 
    110 H110       28.3454  -41.6104  -52.4413 H         1 UNK         0.0840 
    111 H111       28.9984  -42.7378  -51.2788 H         1 UNK         0.0840 
    112 H112       29.9108  -46.7047  -53.4716 H         1 UNK         0.2987 
    113 H113       30.6522  -48.9864  -56.0513 H         1 UNK         0.0785 
    114 H114       32.2559  -46.4590  -55.4918 H         1 UNK         0.0798 
    115 H115       31.5236  -46.8290  -57.0462 H         1 UNK         0.0798 
    116 H116       32.7736  -47.8764  -56.3930 H         1 UNK         0.0798 
    117 H117       32.3079  -48.3711  -53.9185 H         1 UNK         0.3079 
    118 H118       31.1782  -49.2453  -51.2104 H         1 UNK         0.0794 
    119 H119       31.1795  -52.0475  -52.4509 H         1 UNK         0.0786 
    120 H120       29.9268  -51.3632  -51.4250 H         1 UNK         0.0786 
    121 H121       31.5140  -51.6877  -50.7563 H         1 UNK         0.0786 
    122 H122       33.3223  -50.7757  -52.4958 H         1 UNK         0.3032 
    123 H123       35.6062  -49.3375  -51.1457 H         1 UNK         0.1094 
    124 H124       36.6525  -50.3539  -53.2195 H         1 UNK         0.0794 
    125 H125       35.2428  -51.2273  -52.6664 H         1 UNK         0.0794 
    126 H126       35.1216  -50.1600  -54.0640 H         1 UNK         0.0794 
    127 H127       36.5988  -47.4974  -51.8924 H         1 UNK         0.3016 
@<TRIPOS>BOND
     1    1    2 1    
     2    1   67 1    
     3    1   68 1    
     4    1   69 1    
     5    2    3 2    
     6    2    4 am   BACKBONE|DICT|INTERRES
     7    4    5 1    
     8    4   70 1    
     9    5    6 1    
    10    5   65 1    
    11    5   71 1    
    12    6    7 1    
    13    6   72 1    
    14    6   73 1    
    15    7    8 1    
    16    8    9 1    
    17    8   74 1    
    18    8   75 1    
    19    9   10 ar   
    20    9   14 ar   
    21   10   11 ar   
    22   10   76 1    
    23   11   12 ar   
    24   11   48 1    
    25   12   13 ar   
    26   12   77 1    
    27   13   14 ar   
    28   13   15 1    
    29   14   78 1    
    30   15   16 1    
    31   15   79 1    
    32   15   80 1    
    33   16   17 1    
    34   17   18 1    
    35   17   81 1    
    36   17   82 1    
    37   18   19 1    
    38   18   22 1    
    39   18   83 1    
    40   19   20 am   BACKBONE|DICT|INTERRES
    41   19   21 2    
    42   20   84 1    
    43   20   85 1    
    44   22   23 am   BACKBONE|DICT|INTERRES
    45   22   86 1    
    46   23   24 2    
    47   23   25 1    
    48   25   26 1    
    49   25   27 1    
    50   25   87 1    
    51   26   88 1    
    52   26   89 1    
    53   26   90 1    
    54   27   28 am   BACKBONE|DICT|INTERRES
    55   27   91 1    
    56   28   29 2    
    57   28   30 1    
    58   30   31 1    
    59   30   32 1    
    60   30   92 1    
    61   31   93 1    
    62   31   94 1    
    63   31   95 1    
    64   32   33 am   BACKBONE|DICT|INTERRES
    65   32   96 1    
    66   33   34 2    
    67   33   35 1    
    68   35   36 1    
    69   35   37 1    
    70   35   97 1    
    71   36   98 1    
    72   36   99 1    
    73   36  100 1    
    74   37   38 am   BACKBONE|DICT|INTERRES
    75   37  101 1    
    76   38   39 2    
    77   38   40 1    
    78   40   41 1    
    79   40   42 1    
    80   40  102 1    
    81   41  103 1    
    82   41  104 1    
    83   41  105 1    
    84   42   43 am   BACKBONE|DICT|INTERRES
    85   42  106 1    
    86   43   44 2    
    87   43   45 1    
    88   45   46 1    
    89   45   49 1    
    90   45  107 1    
    91   46   47 1    
    92   46  108 1    
    93   46  109 1    
    94   47   48 1    
    95   48  110 1    
    96   48  111 1    
    97   49   50 am   BACKBONE|DICT|INTERRES
    98   49  112 1    
    99   50   51 2    
   100   50   52 1    
   101   52   53 1    
   102   52   54 1    
   103   52  113 1    
   104   53  114 1    
   105   53  115 1    
   106   53  116 1    
   107   54   55 am   BACKBONE|DICT|INTERRES
   108   54  117 1    
   109   55   56 2    
   110   55   57 1    
   111   57   58 1    
   112   57   59 1    
   113   57  118 1    
   114   58  119 1    
   115   58  120 1    
   116   58  121 1    
   117   59   60 am   BACKBONE|DICT|INTERRES
   118   59  122 1    
   119   60   61 2    
   120   60   62 1    
   121   62   63 1    
   122   62   64 1    
   123   62  123 1    
   124   63  124 1    
   125   63  125 1    
   126   63  126 1    
   127   64   65 am   BACKBONE|DICT|INTERRES
   128   64  127 1    
   129   65   66 2    
@<TRIPOS>SUBSTRUCTURE
     1 UNK         1 GROUP             0       ****    0 ROOT    
