@<TRIPOS>MOLECULE
3R134
127   129    1
SMALL
USER_CHARGES


@<TRIPOS>ATOM
      1 CA         39.5969  -44.3035  -54.2118 C.3       0 UNK        -0.1968 
      2 C          38.2664  -44.7564  -53.6281 C.2       0 UNK         0.4852 
      3 O          38.0826  -44.6840  -52.4125 O.2       0 UNK        -0.5359 
      4 N          37.3468  -45.2168  -54.4894 N.am      1 UNK        -0.4300 
      5 CA         36.0120  -45.7303  -54.1570 C.3       1 UNK         0.0863 
      6 C6         35.0682  -44.6424  -53.5739 C.3       11 UNK        -0.0953 
      7 S7         33.3133  -45.0627  -53.8330 S.3       11 UNK        -0.2369 
      8 C8         32.5356  -43.4329  -53.6437 C.3       11 UNK         0.0226 
      9 C9         31.0221  -43.5530  -53.7132 C.ar      11 UNK        -0.0699 
     10 C10        30.2725  -43.7034  -52.5432 C.ar      11 UNK        -0.0804 
     11 C11        28.8816  -43.8330  -52.6025 C.ar      11 UNK        -0.0871 
     12 C12        28.2400  -43.8124  -53.8454 C.ar      11 UNK        -0.1008 
     13 C13        28.9816  -43.6643  -55.0216 C.ar      11 UNK        -0.0735 
     14 C14        30.3710  -43.5290  -54.9493 C.ar      11 UNK        -0.0945 
     15 C15        28.2906  -43.6847  -56.3744 C.3       11 UNK         0.0169 
     16 S16        27.5080  -42.0910  -56.7583 S.3       11 UNK        -0.2669 
     17 C17        27.4020  -42.1701  -58.5805 C.3       11 UNK        -0.0850 
     18 CA         26.1434  -42.9220  -59.0886 C.3       10 UNK         0.0855 
     19 C          25.8737  -42.6217  -60.5925 C.2       10 UNK         0.5543 
     20 N          25.8680  -43.6083  -61.4814 N.am      10 UNK        -0.7343 
     21 O          25.6528  -41.4697  -60.9577 O.2       10 UNK        -0.5027 
     22 N          26.2170  -44.3606  -58.7838 N.am      10 UNK        -0.4495 
     23 C          25.1716  -45.1417  -58.4996 C.2       10 UNK         0.4903 
     24 O          24.0182  -44.7222  -58.3976 O.2       10 UNK        -0.4860 
     25 CA         25.4277  -46.6467  -58.2910 C.3       9 UNK         0.0227 
     26 CB         25.0583  -47.4434  -59.5569 C.3       9 UNK        -0.1964 
     27 N          26.7615  -47.0350  -57.8061 N.am      9 UNK        -0.4231 
     28 C          27.9560  -46.9455  -58.4112 C.2       9 UNK         0.5014 
     29 O          28.1515  -46.3206  -59.4541 O.2       9 UNK        -0.5270 
     30 CA         29.1297  -47.6970  -57.7520 C.3       8 UNK         0.0284 
     31 CB         29.8540  -46.8199  -56.7199 C.3       8 UNK        -0.1977 
     32 N          28.7149  -48.9460  -57.1101 N.am      8 UNK        -0.4342 
     33 C          28.2603  -50.0302  -57.7548 C.2       8 UNK         0.5039 
     34 O          28.2041  -50.1307  -58.9809 O.2       8 UNK        -0.5547 
     35 CA         27.7629  -51.1904  -56.8798 C.3       7 UNK         0.0281 
     36 CB         28.9354  -52.0533  -56.3837 C.3       7 UNK        -0.1963 
     37 N          26.9894  -50.6992  -55.7379 N.am      7 UNK        -0.4444 
     38 C          25.6983  -50.3440  -55.7973 C.2       7 UNK         0.5104 
     39 O          25.0020  -50.4571  -56.8060 O.2       7 UNK        -0.5100 
     40 CA         25.0708  -49.7619  -54.5169 C.3       6 UNK         0.0396 
     41 CB         24.3871  -50.8728  -53.7044 C.3       6 UNK        -0.1801 
     42 N          26.0300  -49.0582  -53.6607 N.am      6 UNK        -0.4747 
     43 C          26.6068  -47.8866  -53.9669 C.2       6 UNK         0.5012 
     44 O          26.3835  -47.2665  -55.0054 O.2       6 UNK        -0.5003 
     45 CA         27.6461  -47.3418  -52.9663 C.3       5 UNK         0.0782 
     46 C46        26.9352  -46.5163  -51.8668 C.3       11 UNK        -0.0868 
     47 S47        28.1002  -45.7096  -50.7188 S.3       11 UNK        -0.2515 
     48 C48        28.0811  -43.9899  -51.3182 C.3       11 UNK         0.0199 
     49 N          28.5141  -48.3912  -52.4104 N.am      5 UNK        -0.4607 
     50 C          29.2713  -49.2230  -53.1366 C.2       4 UNK         0.5031 
     51 O          29.2600  -49.2545  -54.3693 O.2       4 UNK        -0.5119 
     52 CA         30.1295  -50.2362  -52.3628 C.3       4 UNK         0.0263 
     53 CB         29.2912  -51.4755  -52.0078 C.3       4 UNK        -0.1967 
     54 N          31.2857  -50.6571  -53.1574 N.am      4 UNK        -0.4237 
     55 C          32.3377  -49.8749  -53.4289 C.2       3 UNK         0.4908 
     56 O          32.5126  -48.7608  -52.9306 O.2       3 UNK        -0.5102 
     57 CA         33.3267  -50.4153  -54.4752 C.3       3 UNK         0.0241 
     58 CB         32.8285  -50.0842  -55.8935 C.3       3 UNK        -0.1971 
     59 N          34.6623  -49.8442  -54.3016 N.am      3 UNK        -0.4139 
     60 C          35.5298  -50.1863  -53.3391 C.2       2 UNK         0.5016 
     61 O          35.3358  -51.0985  -52.5340 O.2       2 UNK        -0.5319 
     62 CA         36.8445  -49.3842  -53.2678 C.3       2 UNK         0.0286 
     63 CB         37.9852  -50.1562  -53.9510 C.3       2 UNK        -0.1963 
     64 N          36.7390  -48.0497  -53.8703 N.am      2 UNK        -0.4790 
     65 C          36.0980  -47.0168  -53.3029 C.2       1 UNK         0.5024 
     66 O          35.6165  -47.0599  -52.1693 O.2       1 UNK        -0.4888 
     67 H67        40.4112  -44.8916  -53.7892 H         1 UNK         0.0892 
     68 H68        39.6274  -44.4130  -55.2958 H         1 UNK         0.0892 
     69 H69        39.7738  -43.2552  -53.9726 H         1 UNK         0.0892 
     70 H70        37.5798  -45.2432  -55.4727 H         1 UNK         0.3107 
     71 H71        35.5917  -46.0383  -55.1162 H         1 UNK         0.0773 
     72 H72        35.2539  -44.4686  -52.5124 H         1 UNK         0.0680 
     73 H73        35.2561  -43.6901  -54.0724 H         1 UNK         0.0680 
     74 H74        32.8964  -42.7628  -54.4256 H         1 UNK         0.0650 
     75 H75        32.8380  -42.9943  -52.6914 H         1 UNK         0.0650 
     76 H76        30.7732  -43.7300  -51.5848 H         1 UNK         0.1397 
     77 H77        27.1649  -43.9167  -53.9022 H         1 UNK         0.1363 
     78 H78        30.9505  -43.4217  -55.8561 H         1 UNK         0.1355 
     79 H79        29.0062  -43.9349  -57.1578 H         1 UNK         0.0707 
     80 H80        27.5341  -44.4702  -56.3796 H         1 UNK         0.0707 
     81 H81        27.3932  -41.1356  -58.9299 H         1 UNK         0.1034 
     82 H82        28.3118  -42.6098  -58.9929 H         1 UNK         0.1034 
     83 H83        25.2862  -42.5037  -58.5576 H         1 UNK         0.0482 
     84 H84        25.6864  -43.4004  -62.4508 H         1 UNK         0.3460 
     85 H85        26.0536  -44.5553  -61.1924 H         1 UNK         0.3460 
     86 H86        27.1083  -44.8199  -58.9447 H         1 UNK         0.2989 
     87 H87        24.7426  -46.9593  -57.5012 H         1 UNK         0.0559 
     88 H88        24.0346  -47.2318  -59.8685 H         1 UNK         0.0848 
     89 H89        25.1271  -48.5172  -59.3798 H         1 UNK         0.0848 
     90 H90        25.7103  -47.2003  -60.3963 H         1 UNK         0.0848 
     91 H91        26.7502  -47.4386  -56.8727 H         1 UNK         0.3144 
     92 H92        29.8416  -47.9510  -58.5401 H         1 UNK         0.0727 
     93 H93        29.1872  -46.5076  -55.9159 H         1 UNK         0.0790 
     94 H94        30.2609  -45.9232  -57.1870 H         1 UNK         0.0790 
     95 H95        30.6910  -47.3505  -56.2650 H         1 UNK         0.0790 
     96 H96        28.7999  -48.9892  -56.0950 H         1 UNK         0.3215 
     97 H97        27.1202  -51.8222  -57.4974 H         1 UNK         0.0863 
     98 H98        28.5802  -52.9142  -55.8173 H         1 UNK         0.0808 
     99 H99        29.6158  -51.4911  -55.7452 H         1 UNK         0.0808 
    100 H100       29.5181  -52.4358  -57.2228 H         1 UNK         0.0808 
    101 H101       27.5039  -50.5073  -54.8890 H         1 UNK         0.3118 
    102 H102       24.3051  -49.0460  -54.8238 H         1 UNK         0.0546 
    103 H103       25.1032  -51.6154  -53.3502 H         1 UNK         0.0828 
    104 H104       23.6462  -51.3980  -54.3089 H         1 UNK         0.0828 
    105 H105       23.8651  -50.4675  -52.8374 H         1 UNK         0.0828 
    106 H106       26.2773  -49.5013  -52.7873 H         1 UNK         0.3005 
    107 H107       28.2958  -46.6691  -53.5304 H         1 UNK         0.1257 
    108 H108       26.2770  -47.1564  -51.2760 H         1 UNK         0.0775 
    109 H109       26.2898  -45.7561  -52.3113 H         1 UNK         0.0775 
    110 H110       27.0528  -43.6518  -51.4552 H         1 UNK         0.0840 
    111 H111       28.5064  -43.3467  -50.5462 H         1 UNK         0.0840 
    112 H112       28.5741  -48.4230  -51.4027 H         1 UNK         0.2987 
    113 H113       30.4872  -49.7685  -51.4429 H         1 UNK         0.0785 
    114 H114       28.4361  -51.2074  -51.3858 H         1 UNK         0.0798 
    115 H115       29.8785  -52.2035  -51.4477 H         1 UNK         0.0798 
    116 H116       28.9035  -51.9720  -52.8986 H         1 UNK         0.0798 
    117 H117       31.2036  -51.5424  -53.6349 H         1 UNK         0.3079 
    118 H118       33.3959  -51.5001  -54.3682 H         1 UNK         0.0794 
    119 H119       33.4975  -50.4864  -56.6544 H         1 UNK         0.0786 
    120 H120       32.7478  -49.0077  -56.0509 H         1 UNK         0.0786 
    121 H121       31.8411  -50.5099  -56.0750 H         1 UNK         0.0786 
    122 H122       34.8967  -49.0588  -54.8887 H         1 UNK         0.3032 
    123 H123       37.0957  -49.2689  -52.2106 H         1 UNK         0.1094 
    124 H124       37.7964  -50.3010  -55.0154 H         1 UNK         0.0794 
    125 H125       38.9368  -49.6348  -53.8451 H         1 UNK         0.0794 
    126 H126       38.1085  -51.1444  -53.5051 H         1 UNK         0.0794 
    127 H127       37.1485  -47.9279  -54.7860 H         1 UNK         0.3016 
@<TRIPOS>BOND
     1    1    2 1    
     2    1   67 1    
     3    1   68 1    
     4    1   69 1    
     5    2    3 2    
     6    2    4 am   BACKBONE|DICT|INTERRES
     7    4    5 1    
     8    4   70 1    
     9    5    6 1    
    10    5   65 1    
    11    5   71 1    
    12    6    7 1    
    13    6   72 1    
    14    6   73 1    
    15    7    8 1    
    16    8    9 1    
    17    8   74 1    
    18    8   75 1    
    19    9   10 ar   
    20    9   14 ar   
    21   10   11 ar   
    22   10   76 1    
    23   11   12 ar   
    24   11   48 1    
    25   12   13 ar   
    26   12   77 1    
    27   13   14 ar   
    28   13   15 1    
    29   14   78 1    
    30   15   16 1    
    31   15   79 1    
    32   15   80 1    
    33   16   17 1    
    34   17   18 1    
    35   17   81 1    
    36   17   82 1    
    37   18   19 1    
    38   18   22 1    
    39   18   83 1    
    40   19   20 am   BACKBONE|DICT|INTERRES
    41   19   21 2    
    42   20   84 1    
    43   20   85 1    
    44   22   23 am   BACKBONE|DICT|INTERRES
    45   22   86 1    
    46   23   24 2    
    47   23   25 1    
    48   25   26 1    
    49   25   27 1    
    50   25   87 1    
    51   26   88 1    
    52   26   89 1    
    53   26   90 1    
    54   27   28 am   BACKBONE|DICT|INTERRES
    55   27   91 1    
    56   28   29 2    
    57   28   30 1    
    58   30   31 1    
    59   30   32 1    
    60   30   92 1    
    61   31   93 1    
    62   31   94 1    
    63   31   95 1    
    64   32   33 am   BACKBONE|DICT|INTERRES
    65   32   96 1    
    66   33   34 2    
    67   33   35 1    
    68   35   36 1    
    69   35   37 1    
    70   35   97 1    
    71   36   98 1    
    72   36   99 1    
    73   36  100 1    
    74   37   38 am   BACKBONE|DICT|INTERRES
    75   37  101 1    
    76   38   39 2    
    77   38   40 1    
    78   40   41 1    
    79   40   42 1    
    80   40  102 1    
    81   41  103 1    
    82   41  104 1    
    83   41  105 1    
    84   42   43 am   BACKBONE|DICT|INTERRES
    85   42  106 1    
    86   43   44 2    
    87   43   45 1    
    88   45   46 1    
    89   45   49 1    
    90   45  107 1    
    91   46   47 1    
    92   46  108 1    
    93   46  109 1    
    94   47   48 1    
    95   48  110 1    
    96   48  111 1    
    97   49   50 am   BACKBONE|DICT|INTERRES
    98   49  112 1    
    99   50   51 2    
   100   50   52 1    
   101   52   53 1    
   102   52   54 1    
   103   52  113 1    
   104   53  114 1    
   105   53  115 1    
   106   53  116 1    
   107   54   55 am   BACKBONE|DICT|INTERRES
   108   54  117 1    
   109   55   56 2    
   110   55   57 1    
   111   57   58 1    
   112   57   59 1    
   113   57  118 1    
   114   58  119 1    
   115   58  120 1    
   116   58  121 1    
   117   59   60 am   BACKBONE|DICT|INTERRES
   118   59  122 1    
   119   60   61 2    
   120   60   62 1    
   121   62   63 1    
   122   62   64 1    
   123   62  123 1    
   124   63  124 1    
   125   63  125 1    
   126   63  126 1    
   127   64   65 am   BACKBONE|DICT|INTERRES
   128   64  127 1    
   129   65   66 2    
@<TRIPOS>SUBSTRUCTURE
     1 UNK         1 GROUP             0       ****    0 ROOT    
