@<TRIPOS>MOLECULE
3R134
127   129    1
SMALL
USER_CHARGES


@<TRIPOS>ATOM
      1 CA         33.8568  -47.5576  -51.0458 C.3       0 UNK        -0.1968 
      2 C          34.5949  -46.9312  -52.2186 C.2       0 UNK         0.4852 
      3 O          35.5531  -47.5196  -52.7217 O.2       0 UNK        -0.5359 
      4 N          34.1444  -45.7526  -52.6728 N.am      1 UNK        -0.4300 
      5 CA         34.7670  -44.9425  -53.7349 C.3       1 UNK         0.0863 
      6 C6         34.1157  -43.5411  -53.8489 C.3       11 UNK        -0.0953 
      7 S7         34.1920  -42.6229  -52.2720 S.3       11 UNK        -0.2369 
      8 C8         32.8693  -41.3799  -52.4784 C.3       11 UNK         0.0226 
      9 C9         31.4768  -41.9711  -52.6888 C.ar      11 UNK        -0.0699 
     10 C10        31.0455  -43.0913  -51.9694 C.ar      11 UNK        -0.0804 
     11 C11        29.7873  -43.6494  -52.2103 C.ar      11 UNK        -0.0871 
     12 C12        28.9274  -43.0385  -53.1253 C.ar      11 UNK        -0.1008 
     13 C13        29.3372  -41.9120  -53.8452 C.ar      11 UNK        -0.0735 
     14 C14        30.6135  -41.3859  -53.6212 C.ar      11 UNK        -0.0945 
     15 C15        28.4131  -41.2560  -54.8677 C.3       11 UNK         0.0169 
     16 S16        27.5503  -42.4513  -55.9437 S.3       11 UNK        -0.2669 
     17 C17        28.9550  -43.3378  -56.7031 C.3       11 UNK        -0.0850 
     18 CA         28.5605  -44.0393  -58.0287 C.3       10 UNK         0.0855 
     19 C          29.7921  -44.6414  -58.7684 C.2       10 UNK         0.5543 
     20 N          29.6968  -45.8172  -59.3785 N.am      10 UNK        -0.7343 
     21 O          30.8545  -44.0261  -58.8038 O.2       10 UNK        -0.5027 
     22 N          27.4796  -45.0164  -57.8183 N.am      10 UNK        -0.4495 
     23 C          26.4163  -45.1703  -58.6136 C.2       10 UNK         0.4903 
     24 O          26.1764  -44.4626  -59.5938 O.2       10 UNK        -0.4860 
     25 CA         25.4878  -46.3462  -58.2567 C.3       9 UNK         0.0227 
     26 CB         24.3434  -46.5449  -59.2727 C.3       9 UNK        -0.1964 
     27 N          26.2285  -47.5986  -58.0627 N.am      9 UNK        -0.4231 
     28 C          27.0377  -48.2176  -58.9377 C.2       9 UNK         0.5014 
     29 O          27.2868  -47.7874  -60.0644 O.2       9 UNK        -0.5270 
     30 CA         27.7238  -49.5193  -58.4804 C.3       8 UNK         0.0284 
     31 CB         29.2397  -49.3007  -58.3324 C.3       8 UNK        -0.1977 
     32 N          27.2004  -50.0551  -57.2223 N.am      8 UNK        -0.4342 
     33 C          26.0041  -50.6352  -57.0572 C.2       8 UNK         0.5039 
     34 O          25.2022  -50.8318  -57.9704 O.2       8 UNK        -0.5547 
     35 CA         25.6311  -51.0285  -55.6201 C.3       7 UNK         0.0281 
     36 CB         26.2328  -52.3959  -55.2574 C.3       7 UNK        -0.1963 
     37 N          26.0758  -50.0201  -54.6534 N.am      7 UNK        -0.4444 
     38 C          25.4329  -48.8694  -54.4089 C.2       7 UNK         0.5104 
     39 O          24.3758  -48.5478  -54.9511 O.2       7 UNK        -0.5100 
     40 CA         26.0860  -47.9042  -53.4029 C.3       6 UNK         0.0396 
     41 CB         25.6617  -48.2499  -51.9672 C.3       6 UNK        -0.1801 
     42 N          27.5476  -47.8923  -53.4892 N.am      6 UNK        -0.4747 
     43 C          28.2382  -47.3625  -54.5079 C.2       6 UNK         0.5012 
     44 O          27.7187  -46.7942  -55.4704 O.2       6 UNK        -0.5003 
     45 CA         29.7702  -47.5215  -54.4729 C.3       5 UNK         0.0782 
     46 C46        30.4596  -46.3004  -53.8201 C.3       11 UNK        -0.0868 
     47 S47        30.4831  -46.3287  -51.9881 S.3       11 UNK        -0.2515 
     48 C48        29.3771  -44.9497  -51.5346 C.3       11 UNK         0.0199 
     49 N          30.2593  -48.7876  -53.9136 N.am      5 UNK        -0.4607 
     50 C          29.9204  -50.0181  -54.3137 C.2       4 UNK         0.5031 
     51 O          29.0396  -50.2517  -55.1403 O.2       4 UNK        -0.5119 
     52 CA         30.7561  -51.1590  -53.7256 C.3       4 UNK         0.0263 
     53 CB         30.2571  -52.5533  -54.1474 C.3       4 UNK        -0.1967 
     54 N          32.1238  -50.9671  -54.1963 N.am      4 UNK        -0.4237 
     55 C          33.2274  -50.9616  -53.4454 C.2       3 UNK         0.4908 
     56 O          33.2379  -51.2012  -52.2381 O.2       3 UNK        -0.5102 
     57 CA         34.5435  -50.5956  -54.1546 C.3       3 UNK         0.0241 
     58 CB         35.0450  -51.7494  -55.0458 C.3       3 UNK        -0.1971 
     59 N          34.4969  -49.3179  -54.8844 N.am      3 UNK        -0.4139 
     60 C          33.7902  -48.9907  -55.9800 C.2       2 UNK         0.5016 
     61 O          33.0299  -49.7674  -56.5604 O.2       2 UNK        -0.5319 
     62 CA         33.9204  -47.5374  -56.4695 C.3       2 UNK         0.0286 
     63 CB         32.8000  -47.1184  -57.4416 C.3       2 UNK        -0.1963 
     64 N          33.9367  -46.6355  -55.3184 N.am      2 UNK        -0.4790 
     65 C          34.8074  -45.6393  -55.1151 C.2       1 UNK         0.5024 
     66 O          35.6391  -45.2801  -55.9492 O.2       1 UNK        -0.4888 
     67 H67        34.5681  -47.8994  -50.2944 H         1 UNK         0.0892 
     68 H68        33.1787  -46.8509  -50.5679 H         1 UNK         0.0892 
     69 H69        33.2766  -48.4169  -51.3804 H         1 UNK         0.0892 
     70 H70        33.3548  -45.3196  -52.2152 H         1 UNK         0.3107 
     71 H71        35.8096  -44.7989  -53.4431 H         1 UNK         0.0773 
     72 H72        33.0767  -43.6343  -54.1697 H         1 UNK         0.0680 
     73 H73        34.6201  -42.9399  -54.6080 H         1 UNK         0.0680 
     74 H74        33.1402  -40.7330  -53.3143 H         1 UNK         0.0650 
     75 H75        32.8462  -40.7462  -51.5912 H         1 UNK         0.0650 
     76 H76        31.7034  -43.5587  -51.2503 H         1 UNK         0.1397 
     77 H77        27.9490  -43.4624  -53.3063 H         1 UNK         0.1363 
     78 H78        30.9379  -40.5168  -54.1774 H         1 UNK         0.1355 
     79 H79        28.9681  -40.5606  -55.4995 H         1 UNK         0.0707 
     80 H80        27.6685  -40.6631  -54.3352 H         1 UNK         0.0707 
     81 H81        29.3425  -44.0639  -55.9885 H         1 UNK         0.1034 
     82 H82        29.7582  -42.6185  -56.8746 H         1 UNK         0.1034 
     83 H83        28.1991  -43.2549  -58.6959 H         1 UNK         0.0482 
     84 H84        28.8131  -46.3048  -59.4294 H         1 UNK         0.3460 
     85 H85        30.5013  -46.1815  -59.8622 H         1 UNK         0.3460 
     86 H86        27.5936  -45.6484  -57.0303 H         1 UNK         0.2989 
     87 H87        25.0379  -46.1032  -57.2928 H         1 UNK         0.0559 
     88 H88        24.7218  -46.7654  -60.2715 H         1 UNK         0.0848 
     89 H89        23.7284  -45.6474  -59.3488 H         1 UNK         0.0848 
     90 H90        23.6874  -47.3629  -58.9750 H         1 UNK         0.0848 
     91 H91        26.1484  -48.0104  -57.1433 H         1 UNK         0.3144 
     92 H92        27.5585  -50.2656  -59.2601 H         1 UNK         0.0727 
     93 H93        29.7482  -50.2150  -58.0251 H         1 UNK         0.0790 
     94 H94        29.4640  -48.5303  -57.5951 H         1 UNK         0.0790 
     95 H95        29.6852  -48.9858  -59.2769 H         1 UNK         0.0790 
     96 H96        27.8272  -50.0139  -56.4182 H         1 UNK         0.3215 
     97 H97        24.5431  -51.1118  -55.5654 H         1 UNK         0.0863 
     98 H98        25.9579  -52.6960  -54.2462 H         1 UNK         0.0808 
     99 H99        27.3211  -52.3917  -55.3235 H         1 UNK         0.0808 
    100 H100       25.8706  -53.1704  -55.9348 H         1 UNK         0.0808 
    101 H101       26.9787  -50.1699  -54.2234 H         1 UNK         0.3118 
    102 H102       25.7256  -46.8978  -53.6277 H         1 UNK         0.0546 
    103 H103       26.0068  -49.2404  -51.6685 H         1 UNK         0.0828 
    104 H104       24.5751  -48.2407  -51.8696 H         1 UNK         0.0828 
    105 H105       26.0551  -47.5268  -51.2524 H         1 UNK         0.0828 
    106 H106       28.0626  -48.3292  -52.7380 H         1 UNK         0.3005 
    107 H107       30.0673  -47.5317  -55.5220 H         1 UNK         0.1257 
    108 H108       31.4972  -46.2620  -54.1454 H         1 UNK         0.0775 
    109 H109       30.0240  -45.3733  -54.1896 H         1 UNK         0.0775 
    110 H110       28.3525  -45.2210  -51.7947 H         1 UNK         0.0840 
    111 H111       29.3964  -44.8164  -50.4522 H         1 UNK         0.0840 
    112 H112       30.9640  -48.6982  -53.1965 H         1 UNK         0.2987 
    113 H113       30.7041  -51.0817  -52.6375 H         1 UNK         0.0785 
    114 H114       30.8831  -53.3399  -53.7261 H         1 UNK         0.0798 
    115 H115       30.2556  -52.6725  -55.2318 H         1 UNK         0.0798 
    116 H116       29.2396  -52.7253  -53.7951 H         1 UNK         0.0798 
    117 H117       32.2306  -50.6941  -55.1732 H         1 UNK         0.3079 
    118 H118       35.2867  -50.4496  -53.3686 H         1 UNK         0.0794 
    119 H119       35.1609  -52.6654  -54.4650 H         1 UNK         0.0786 
    120 H120       36.0168  -51.5178  -55.4817 H         1 UNK         0.0786 
    121 H121       34.3568  -51.9706  -55.8619 H         1 UNK         0.0786 
    122 H122       35.0446  -48.5814  -54.4490 H         1 UNK         0.3032 
    123 H123       34.8725  -47.4826  -57.0025 H         1 UNK         0.1094 
    124 H124       31.8154  -47.1917  -56.9834 H         1 UNK         0.0794 
    125 H125       32.9333  -46.0908  -57.7806 H         1 UNK         0.0794 
    126 H126       32.7936  -47.7521  -58.3294 H         1 UNK         0.0794 
    127 H127       33.3149  -46.8718  -54.5595 H         1 UNK         0.3016 
@<TRIPOS>BOND
     1    1    2 1    
     2    1   67 1    
     3    1   68 1    
     4    1   69 1    
     5    2    3 2    
     6    2    4 am   BACKBONE|DICT|INTERRES
     7    4    5 1    
     8    4   70 1    
     9    5    6 1    
    10    5   65 1    
    11    5   71 1    
    12    6    7 1    
    13    6   72 1    
    14    6   73 1    
    15    7    8 1    
    16    8    9 1    
    17    8   74 1    
    18    8   75 1    
    19    9   10 ar   
    20    9   14 ar   
    21   10   11 ar   
    22   10   76 1    
    23   11   12 ar   
    24   11   48 1    
    25   12   13 ar   
    26   12   77 1    
    27   13   14 ar   
    28   13   15 1    
    29   14   78 1    
    30   15   16 1    
    31   15   79 1    
    32   15   80 1    
    33   16   17 1    
    34   17   18 1    
    35   17   81 1    
    36   17   82 1    
    37   18   19 1    
    38   18   22 1    
    39   18   83 1    
    40   19   20 am   BACKBONE|DICT|INTERRES
    41   19   21 2    
    42   20   84 1    
    43   20   85 1    
    44   22   23 am   BACKBONE|DICT|INTERRES
    45   22   86 1    
    46   23   24 2    
    47   23   25 1    
    48   25   26 1    
    49   25   27 1    
    50   25   87 1    
    51   26   88 1    
    52   26   89 1    
    53   26   90 1    
    54   27   28 am   BACKBONE|DICT|INTERRES
    55   27   91 1    
    56   28   29 2    
    57   28   30 1    
    58   30   31 1    
    59   30   32 1    
    60   30   92 1    
    61   31   93 1    
    62   31   94 1    
    63   31   95 1    
    64   32   33 am   BACKBONE|DICT|INTERRES
    65   32   96 1    
    66   33   34 2    
    67   33   35 1    
    68   35   36 1    
    69   35   37 1    
    70   35   97 1    
    71   36   98 1    
    72   36   99 1    
    73   36  100 1    
    74   37   38 am   BACKBONE|DICT|INTERRES
    75   37  101 1    
    76   38   39 2    
    77   38   40 1    
    78   40   41 1    
    79   40   42 1    
    80   40  102 1    
    81   41  103 1    
    82   41  104 1    
    83   41  105 1    
    84   42   43 am   BACKBONE|DICT|INTERRES
    85   42  106 1    
    86   43   44 2    
    87   43   45 1    
    88   45   46 1    
    89   45   49 1    
    90   45  107 1    
    91   46   47 1    
    92   46  108 1    
    93   46  109 1    
    94   47   48 1    
    95   48  110 1    
    96   48  111 1    
    97   49   50 am   BACKBONE|DICT|INTERRES
    98   49  112 1    
    99   50   51 2    
   100   50   52 1    
   101   52   53 1    
   102   52   54 1    
   103   52  113 1    
   104   53  114 1    
   105   53  115 1    
   106   53  116 1    
   107   54   55 am   BACKBONE|DICT|INTERRES
   108   54  117 1    
   109   55   56 2    
   110   55   57 1    
   111   57   58 1    
   112   57   59 1    
   113   57  118 1    
   114   58  119 1    
   115   58  120 1    
   116   58  121 1    
   117   59   60 am   BACKBONE|DICT|INTERRES
   118   59  122 1    
   119   60   61 2    
   120   60   62 1    
   121   62   63 1    
   122   62   64 1    
   123   62  123 1    
   124   63  124 1    
   125   63  125 1    
   126   63  126 1    
   127   64   65 am   BACKBONE|DICT|INTERRES
   128   64  127 1    
   129   65   66 2    
@<TRIPOS>SUBSTRUCTURE
     1 UNK         1 GROUP             0       ****    0 ROOT    
