@<TRIPOS>MOLECULE
3R134
127   129    1
SMALL
USER_CHARGES


@<TRIPOS>ATOM
      1 CA         33.2581  -42.4773  -48.9729 C.3       0 UNK        -0.1968 
      2 C          33.9000  -43.6435  -49.7104 C.2       0 UNK         0.4852 
      3 O          35.1232  -43.7872  -49.6740 O.2       0 UNK        -0.5359 
      4 N          33.0824  -44.4699  -50.3714 N.am      1 UNK        -0.4300 
      5 CA         33.4880  -45.6727  -51.1019 C.3       1 UNK         0.0863 
      6 C6         33.3103  -45.5148  -52.6341 C.3       11 UNK        -0.0953 
      7 S7         34.4020  -44.2421  -53.3495 S.3       11 UNK        -0.2369 
      8 C8         33.2161  -42.9170  -53.7454 C.3       11 UNK         0.0226 
      9 C9         32.2705  -43.3109  -54.8728 C.ar      11 UNK        -0.0699 
     10 C10        32.7637  -43.5008  -56.1665 C.ar      11 UNK        -0.0804 
     11 C11        31.9083  -43.8701  -57.2087 C.ar      11 UNK        -0.0871 
     12 C12        30.5437  -44.0366  -56.9495 C.ar      11 UNK        -0.1008 
     13 C13        30.0364  -43.8431  -55.6612 C.ar      11 UNK        -0.0735 
     14 C14        30.9046  -43.4801  -54.6272 C.ar      11 UNK        -0.0945 
     15 C15        28.5570  -44.0472  -55.3736 C.3       11 UNK         0.0169 
     16 S16        27.6044  -42.5135  -55.6038 S.3       11 UNK        -0.2669 
     17 C17        27.1333  -42.6200  -57.3664 C.3       11 UNK        -0.0850 
     18 CA         25.6699  -43.1028  -57.5556 C.3       10 UNK         0.0855 
     19 C          25.2204  -43.0030  -59.0440 C.2       10 UNK         0.5543 
     20 N          24.7277  -44.0632  -59.6750 N.am      10 UNK        -0.7343 
     21 O          25.3126  -41.9321  -59.6390 O.2       10 UNK        -0.5027 
     22 N          25.4629  -44.4297  -56.9568 N.am      10 UNK        -0.4495 
     23 C          24.3092  -44.8838  -56.4557 C.2       10 UNK         0.4903 
     24 O          23.2814  -44.2090  -56.3759 O.2       10 UNK        -0.4860 
     25 CA         24.3178  -46.3479  -55.9702 C.3       9 UNK         0.0227 
     26 CB         22.9011  -46.9511  -55.8652 C.3       9 UNK        -0.1964 
     27 N          25.1949  -47.2212  -56.7647 N.am      9 UNK        -0.4231 
     28 C          25.1139  -47.4641  -58.0854 C.2       9 UNK         0.5014 
     29 O          24.2834  -46.9320  -58.8237 O.2       9 UNK        -0.5270 
     30 CA         26.1441  -48.4237  -58.7134 C.3       8 UNK         0.0284 
     31 CB         27.0501  -47.6646  -59.6983 C.3       8 UNK        -0.1977 
     32 N          26.9716  -49.1189  -57.7222 N.am      8 UNK        -0.4342 
     33 C          26.5487  -50.1590  -56.9855 C.2       8 UNK         0.5039 
     34 O          25.4491  -50.6917  -57.1407 O.2       8 UNK        -0.5547 
     35 CA         27.4751  -50.6927  -55.8730 C.3       7 UNK         0.0281 
     36 CB         28.1153  -52.0226  -56.3036 C.3       7 UNK        -0.1963 
     37 N          28.5320  -49.7707  -55.4447 N.am      7 UNK        -0.4444 
     38 C          28.3468  -48.5418  -54.9403 C.2       7 UNK         0.5104 
     39 O          27.2399  -48.0363  -54.7500 O.2       7 UNK        -0.5100 
     40 CA         29.6144  -47.7083  -54.6832 C.3       6 UNK         0.0396 
     41 CB         30.1910  -48.0246  -53.2981 C.3       6 UNK        -0.1801 
     42 N          30.6548  -47.8958  -55.7008 N.am      6 UNK        -0.4747 
     43 C          30.5048  -47.7185  -57.0218 C.2       6 UNK         0.5012 
     44 O          29.4432  -47.3615  -57.5325 O.2       6 UNK        -0.5003 
     45 CA         31.6987  -48.0688  -57.9399 C.3       5 UNK         0.0782 
     46 C46        32.6715  -46.8786  -58.1498 C.3       11 UNK        -0.0868 
     47 S47        32.0118  -45.6756  -59.3545 S.3       11 UNK        -0.2515 
     48 C48        32.4700  -44.0749  -58.6111 C.3       11 UNK         0.0199 
     49 N          32.3759  -49.3174  -57.5625 N.am      5 UNK        -0.4607 
     50 C          33.1373  -49.5467  -56.4861 C.2       4 UNK         0.5031 
     51 O          33.4221  -48.6925  -55.6446 O.2       4 UNK        -0.5119 
     52 CA         33.6299  -50.9918  -56.3051 C.3       4 UNK         0.0263 
     53 CB         35.1470  -51.0792  -56.5357 C.3       4 UNK        -0.1967 
     54 N          33.3089  -51.5321  -54.9818 N.am      4 UNK        -0.4237 
     55 C          32.0870  -51.6065  -54.4344 C.2       3 UNK         0.4908 
     56 O          31.0591  -51.2038  -54.9829 O.2       3 UNK        -0.5102 
     57 CA         31.9794  -52.2501  -53.0386 C.3       3 UNK         0.0241 
     58 CB         33.0844  -53.2899  -52.7393 C.3       3 UNK        -0.1971 
     59 N          31.8929  -51.2422  -51.9759 N.am      3 UNK        -0.4139 
     60 C          32.8093  -50.3135  -51.6672 C.2       2 UNK         0.5016 
     61 O          33.9181  -50.2180  -52.2011 O.2       2 UNK        -0.5319 
     62 CA         32.4288  -49.3251  -50.5595 C.3       2 UNK         0.0286 
     63 CB         32.8226  -49.8633  -49.1732 C.3       2 UNK        -0.1963 
     64 N          33.1288  -48.0712  -50.8196 N.am      2 UNK        -0.4790 
     65 C          32.6388  -46.8496  -50.5928 C.2       1 UNK         0.5024 
     66 O          31.5508  -46.6388  -50.0490 O.2       1 UNK        -0.4888 
     67 H67        33.4814  -42.5376  -47.9081 H         1 UNK         0.0892 
     68 H68        32.1748  -42.4650  -49.0921 H         1 UNK         0.0892 
     69 H69        33.6505  -41.5336  -49.3511 H         1 UNK         0.0892 
     70 H70        32.0808  -44.3550  -50.2913 H         1 UNK         0.3107 
     71 H71        34.5324  -45.9101  -50.8882 H         1 UNK         0.0773 
     72 H72        32.2711  -45.2902  -52.8777 H         1 UNK         0.0680 
     73 H73        33.5416  -46.4504  -53.1477 H         1 UNK         0.0680 
     74 H74        32.6634  -42.6497  -52.8434 H         1 UNK         0.0650 
     75 H75        33.7710  -42.0257  -54.0410 H         1 UNK         0.0650 
     76 H76        33.8206  -43.3685  -56.3546 H         1 UNK         0.1397 
     77 H77        29.8820  -44.3339  -57.7508 H         1 UNK         0.1363 
     78 H78        30.5151  -43.3324  -53.6292 H         1 UNK         0.1355 
     79 H79        28.4255  -44.3807  -54.3431 H         1 UNK         0.0707 
     80 H80        28.1559  -44.8456  -55.9994 H         1 UNK         0.0707 
     81 H81        27.8252  -43.2660  -57.9071 H         1 UNK         0.1034 
     82 H82        27.2624  -41.6237  -57.7937 H         1 UNK         0.1034 
     83 H83        25.0328  -42.3966  -57.0195 H         1 UNK         0.0482 
     84 H84        24.4402  -43.9685  -60.6359 H         1 UNK         0.3460 
     85 H85        24.6120  -44.9536  -59.2047 H         1 UNK         0.3460 
     86 H86        26.2442  -45.0648  -57.0015 H         1 UNK         0.2989 
     87 H87        24.7430  -46.3294  -54.9656 H         1 UNK         0.0559 
     88 H88        22.2836  -46.3836  -55.1679 H         1 UNK         0.0848 
     89 H89        22.9336  -47.9789  -55.5039 H         1 UNK         0.0848 
     90 H90        22.3888  -46.9499  -56.8279 H         1 UNK         0.0848 
     91 H91        25.9341  -47.6765  -56.2362 H         1 UNK         0.3144 
     92 H92        25.5861  -49.1715  -59.2809 H         1 UNK         0.0727 
     93 H93        27.8155  -48.3147  -60.1224 H         1 UNK         0.0790 
     94 H94        27.5499  -46.8202  -59.2229 H         1 UNK         0.0790 
     95 H95        26.4688  -47.2643  -60.5301 H         1 UNK         0.0790 
     96 H96        27.8822  -48.7117  -57.5326 H         1 UNK         0.3215 
     97 H97        26.8434  -50.8842  -55.0031 H         1 UNK         0.0863 
     98 H98        28.6596  -52.4852  -55.4802 H         1 UNK         0.0808 
     99 H99        28.8126  -51.8842  -57.1308 H         1 UNK         0.0808 
    100 H100       27.3581  -52.7375  -56.6290 H         1 UNK         0.0808 
    101 H101       29.4854  -50.1197  -55.5059 H         1 UNK         0.3118 
    102 H102       29.3315  -46.6565  -54.7013 H         1 UNK         0.0546 
    103 H103       29.4643  -47.8133  -52.5124 H         1 UNK         0.0828 
    104 H104       31.0752  -47.4243  -53.0930 H         1 UNK         0.0828 
    105 H105       30.4703  -49.0740  -53.2140 H         1 UNK         0.0828 
    106 H106       31.5708  -48.1988  -55.3813 H         1 UNK         0.3005 
    107 H107       31.2559  -48.3004  -58.9107 H         1 UNK         0.1257 
    108 H108       33.6211  -47.2364  -58.5504 H         1 UNK         0.0775 
    109 H109       32.9136  -46.3975  -57.2006 H         1 UNK         0.0775 
    110 H110       33.5583  -43.9956  -58.6093 H         1 UNK         0.0840 
    111 H111       32.1060  -43.2727  -59.2543 H         1 UNK         0.0840 
    112 H112       32.1833  -50.0988  -58.1736 H         1 UNK         0.2987 
    113 H113       33.1347  -51.6296  -57.0402 H         1 UNK         0.0785 
    114 H114       35.6993  -50.4911  -55.8013 H         1 UNK         0.0798 
    115 H115       35.4146  -50.7012  -57.5234 H         1 UNK         0.0798 
    116 H116       35.5005  -52.1088  -56.4773 H         1 UNK         0.0798 
    117 H117       34.0913  -51.8134  -54.4093 H         1 UNK         0.3079 
    118 H118       31.0279  -52.7843  -53.0305 H         1 UNK         0.0794 
    119 H119       34.0738  -52.8415  -52.6476 H         1 UNK         0.0786 
    120 H120       33.1359  -54.0437  -53.5262 H         1 UNK         0.0786 
    121 H121       32.8788  -53.8162  -51.8071 H         1 UNK         0.0786 
    122 H122       31.0163  -51.2301  -51.4729 H         1 UNK         0.3032 
    123 H123       31.3490  -49.1610  -50.5939 H         1 UNK         0.1094 
    124 H124       32.3148  -50.8044  -48.9586 H         1 UNK         0.0794 
    125 H125       33.8956  -50.0468  -49.1028 H         1 UNK         0.0794 
    126 H126       32.5508  -49.1614  -48.3845 H         1 UNK         0.0794 
    127 H127       33.9947  -48.1856  -51.3340 H         1 UNK         0.3016 
@<TRIPOS>BOND
     1    1    2 1    
     2    1   67 1    
     3    1   68 1    
     4    1   69 1    
     5    2    3 2    
     6    2    4 am   BACKBONE|DICT|INTERRES
     7    4    5 1    
     8    4   70 1    
     9    5    6 1    
    10    5   65 1    
    11    5   71 1    
    12    6    7 1    
    13    6   72 1    
    14    6   73 1    
    15    7    8 1    
    16    8    9 1    
    17    8   74 1    
    18    8   75 1    
    19    9   10 ar   
    20    9   14 ar   
    21   10   11 ar   
    22   10   76 1    
    23   11   12 ar   
    24   11   48 1    
    25   12   13 ar   
    26   12   77 1    
    27   13   14 ar   
    28   13   15 1    
    29   14   78 1    
    30   15   16 1    
    31   15   79 1    
    32   15   80 1    
    33   16   17 1    
    34   17   18 1    
    35   17   81 1    
    36   17   82 1    
    37   18   19 1    
    38   18   22 1    
    39   18   83 1    
    40   19   20 am   BACKBONE|DICT|INTERRES
    41   19   21 2    
    42   20   84 1    
    43   20   85 1    
    44   22   23 am   BACKBONE|DICT|INTERRES
    45   22   86 1    
    46   23   24 2    
    47   23   25 1    
    48   25   26 1    
    49   25   27 1    
    50   25   87 1    
    51   26   88 1    
    52   26   89 1    
    53   26   90 1    
    54   27   28 am   BACKBONE|DICT|INTERRES
    55   27   91 1    
    56   28   29 2    
    57   28   30 1    
    58   30   31 1    
    59   30   32 1    
    60   30   92 1    
    61   31   93 1    
    62   31   94 1    
    63   31   95 1    
    64   32   33 am   BACKBONE|DICT|INTERRES
    65   32   96 1    
    66   33   34 2    
    67   33   35 1    
    68   35   36 1    
    69   35   37 1    
    70   35   97 1    
    71   36   98 1    
    72   36   99 1    
    73   36  100 1    
    74   37   38 am   BACKBONE|DICT|INTERRES
    75   37  101 1    
    76   38   39 2    
    77   38   40 1    
    78   40   41 1    
    79   40   42 1    
    80   40  102 1    
    81   41  103 1    
    82   41  104 1    
    83   41  105 1    
    84   42   43 am   BACKBONE|DICT|INTERRES
    85   42  106 1    
    86   43   44 2    
    87   43   45 1    
    88   45   46 1    
    89   45   49 1    
    90   45  107 1    
    91   46   47 1    
    92   46  108 1    
    93   46  109 1    
    94   47   48 1    
    95   48  110 1    
    96   48  111 1    
    97   49   50 am   BACKBONE|DICT|INTERRES
    98   49  112 1    
    99   50   51 2    
   100   50   52 1    
   101   52   53 1    
   102   52   54 1    
   103   52  113 1    
   104   53  114 1    
   105   53  115 1    
   106   53  116 1    
   107   54   55 am   BACKBONE|DICT|INTERRES
   108   54  117 1    
   109   55   56 2    
   110   55   57 1    
   111   57   58 1    
   112   57   59 1    
   113   57  118 1    
   114   58  119 1    
   115   58  120 1    
   116   58  121 1    
   117   59   60 am   BACKBONE|DICT|INTERRES
   118   59  122 1    
   119   60   61 2    
   120   60   62 1    
   121   62   63 1    
   122   62   64 1    
   123   62  123 1    
   124   63  124 1    
   125   63  125 1    
   126   63  126 1    
   127   64   65 am   BACKBONE|DICT|INTERRES
   128   64  127 1    
   129   65   66 2    
@<TRIPOS>SUBSTRUCTURE
     1 UNK         1 GROUP             0       ****    0 ROOT    
