@<TRIPOS>MOLECULE
3R134
127   129    1
SMALL
USER_CHARGES


@<TRIPOS>ATOM
      1 CA         31.7118  -47.9008  -60.0653 C.3       0 UNK        -0.1968 
      2 C          32.4417  -47.8077  -58.7336 C.2       0 UNK         0.4852 
      3 O          33.6391  -47.5193  -58.7205 O.2       0 UNK        -0.5359 
      4 N          31.7090  -48.0426  -57.6353 N.am      1 UNK        -0.4300 
      5 CA         32.1147  -47.9984  -56.2258 C.3       1 UNK         0.0863 
      6 C6         31.9155  -46.6093  -55.5509 C.3       11 UNK        -0.0953 
      7 S7         32.8348  -45.2159  -56.2893 S.3       11 UNK        -0.2369 
      8 C8         33.1228  -44.1558  -54.8331 C.3       11 UNK         0.0226 
      9 C9         31.8414  -43.7444  -54.1123 C.ar      11 UNK        -0.0699 
     10 C10        31.7757  -43.8169  -52.7175 C.ar      11 UNK        -0.0804 
     11 C11        30.6173  -43.4294  -52.0372 C.ar      11 UNK        -0.0871 
     12 C12        29.5175  -42.9636  -52.7641 C.ar      11 UNK        -0.1008 
     13 C13        29.5643  -42.8901  -54.1606 C.ar      11 UNK        -0.0735 
     14 C14        30.7342  -43.2698  -54.8247 C.ar      11 UNK        -0.0945 
     15 C15        28.3649  -42.3848  -54.9550 C.3       11 UNK         0.0169 
     16 S16        26.8513  -43.3113  -54.5529 S.3       11 UNK        -0.2669 
     17 C17        25.7090  -42.7979  -55.8813 C.3       11 UNK        -0.0850 
     18 CA         25.3021  -43.9816  -56.8115 C.3       10 UNK         0.0855 
     19 C          24.1483  -43.6116  -57.7943 C.2       10 UNK         0.5543 
     20 N          24.1148  -44.1440  -59.0113 N.am      10 UNK        -0.7343 
     21 O          23.2478  -42.8546  -57.4398 O.2       10 UNK        -0.5027 
     22 N          26.4501  -44.6482  -57.4512 N.am      10 UNK        -0.4495 
     23 C          27.3049  -44.0824  -58.3152 C.2       10 UNK         0.4903 
     24 O          27.2744  -42.8958  -58.6416 O.2       10 UNK        -0.4860 
     25 CA         28.3799  -44.9905  -58.9345 C.3       9 UNK         0.0227 
     26 CB         29.6901  -44.8598  -58.1466 C.3       9 UNK        -0.1964 
     27 N          28.0016  -46.4039  -59.0163 N.am      9 UNK        -0.4231 
     28 C          27.0033  -46.9106  -59.7496 C.2       9 UNK         0.5014 
     29 O          26.2323  -46.2211  -60.4190 O.2       9 UNK        -0.5270 
     30 CA         26.8167  -48.4405  -59.7279 C.3       8 UNK         0.0284 
     31 CB         27.7868  -49.1391  -60.7004 C.3       8 UNK        -0.1977 
     32 N          26.8621  -49.0524  -58.3914 N.am      8 UNK        -0.4342 
     33 C          27.8768  -49.1138  -57.5178 C.2       8 UNK         0.5039 
     34 O          28.9986  -48.6428  -57.7238 O.2       8 UNK        -0.5547 
     35 CA         27.5611  -49.7668  -56.1606 C.3       7 UNK         0.0281 
     36 CB         28.6971  -50.7038  -55.7148 C.3       7 UNK        -0.1963 
     37 N          27.3155  -48.7860  -55.0996 N.am      7 UNK        -0.4444 
     38 C          26.4441  -47.7685  -55.1181 C.2       7 UNK         0.5104 
     39 O          25.7237  -47.4923  -56.0777 O.2       7 UNK        -0.5100 
     40 CA         26.3478  -46.8917  -53.8581 C.3       6 UNK         0.0396 
     41 CB         25.2423  -47.3981  -52.9111 C.3       6 UNK        -0.1801 
     42 N          27.6194  -46.6609  -53.1509 N.am      6 UNK        -0.4747 
     43 C          28.3342  -47.5314  -52.4228 C.2       6 UNK         0.5012 
     44 O          28.0170  -48.7155  -52.2830 O.2       6 UNK        -0.5003 
     45 CA         29.6016  -46.9770  -51.7342 C.3       5 UNK         0.0782 
     46 C46        29.2234  -45.9905  -50.5999 C.3       11 UNK        -0.0868 
     47 S47        30.6953  -45.1916  -49.8752 S.3       11 UNK        -0.2515 
     48 C48        30.5616  -43.4904  -50.5159 C.3       11 UNK         0.0199 
     49 N          30.4530  -48.0629  -51.2318 N.am      5 UNK        -0.4607 
     50 C          31.1693  -48.8891  -51.9992 C.2       4 UNK         0.5031 
     51 O          31.2535  -48.7909  -53.2245 O.2       4 UNK        -0.5119 
     52 CA         31.8983  -50.0304  -51.2836 C.3       4 UNK         0.0263 
     53 CB         30.9209  -51.1726  -50.9441 C.3       4 UNK        -0.1967 
     54 N          32.9518  -50.5112  -52.1704 N.am      4 UNK        -0.4237 
     55 C          33.9985  -51.2700  -51.8289 C.2       3 UNK         0.4908 
     56 O          34.2003  -51.6916  -50.6895 O.2       3 UNK        -0.5102 
     57 CA         34.9943  -51.6165  -52.9490 C.3       3 UNK         0.0241 
     58 CB         34.5797  -52.9180  -53.6544 C.3       3 UNK        -0.1971 
     59 N          35.1248  -50.5483  -53.9433 N.am      3 UNK        -0.4139 
     60 C          35.7757  -49.3950  -53.7493 C.2       2 UNK         0.5016 
     61 O          36.3701  -49.1124  -52.7085 O.2       2 UNK        -0.5319 
     62 CA         35.7600  -48.3787  -54.9045 C.3       2 UNK         0.0286 
     63 CB         36.6169  -48.8578  -56.0932 C.3       2 UNK        -0.1963 
     64 N          34.4130  -47.9777  -55.3347 N.am      2 UNK        -0.4790 
     65 C          33.4554  -48.7063  -55.9272 C.2       1 UNK         0.5024 
     66 O          33.5759  -49.9026  -56.2035 O.2       1 UNK        -0.4888 
     67 H67        30.6570  -47.6524  -59.9561 H         1 UNK         0.0892 
     68 H68        32.1430  -47.2061  -60.7857 H         1 UNK         0.0892 
     69 H69        31.7915  -48.9090  -60.4706 H         1 UNK         0.0892 
     70 H70        30.7297  -48.3043  -57.7581 H         1 UNK         0.3107 
     71 H71        31.3817  -48.6500  -55.7526 H         1 UNK         0.0773 
     72 H72        32.1537  -46.6690  -54.4878 H         1 UNK         0.0680 
     73 H73        30.8565  -46.3529  -55.5801 H         1 UNK         0.0680 
     74 H74        33.6465  -43.2552  -55.1555 H         1 UNK         0.0650 
     75 H75        33.7970  -44.6788  -54.1532 H         1 UNK         0.0650 
     76 H76        32.6278  -44.1728  -52.1542 H         1 UNK         0.1397 
     77 H77        28.6193  -42.6565  -52.2455 H         1 UNK         0.1363 
     78 H78        30.7871  -43.1982  -55.9016 H         1 UNK         0.1355 
     79 H79        28.2090  -41.3267  -54.7413 H         1 UNK         0.0707 
     80 H80        28.5560  -42.4648  -56.0261 H         1 UNK         0.0707 
     81 H81        24.8263  -42.3800  -55.3941 H         1 UNK         0.1034 
     82 H82        26.1412  -41.9785  -56.4572 H         1 UNK         0.1034 
     83 H83        24.8617  -44.7460  -56.1706 H         1 UNK         0.0482 
     84 H84        24.8456  -44.7696  -59.3231 H         1 UNK         0.3460 
     85 H85        23.3579  -43.9061  -59.6325 H         1 UNK         0.3460 
     86 H86        26.5340  -45.6378  -57.2610 H         1 UNK         0.2989 
     87 H87        28.5575  -44.6408  -59.9535 H         1 UNK         0.0559 
     88 H88        30.0266  -43.8227  -58.1213 H         1 UNK         0.0848 
     89 H89        30.4918  -45.4433  -58.5969 H         1 UNK         0.0848 
     90 H90        29.5682  -45.1889  -57.1148 H         1 UNK         0.0848 
     91 H91        28.5493  -47.0733  -58.4774 H         1 UNK         0.3144 
     92 H92        25.8062  -48.6259  -60.0960 H         1 UNK         0.0727 
     93 H93        27.5480  -50.1978  -60.8005 H         1 UNK         0.0790 
     94 H94        28.8230  -49.0636  -60.3741 H         1 UNK         0.0790 
     95 H95        27.7264  -48.6986  -61.6966 H         1 UNK         0.0790 
     96 H96        25.9686  -49.3969  -58.0663 H         1 UNK         0.3215 
     97 H97        26.6562  -50.3680  -56.2681 H         1 UNK         0.0863 
     98 H98        28.4205  -51.2655  -54.8223 H         1 UNK         0.0808 
     99 H99        29.6106  -50.1537  -55.4892 H         1 UNK         0.0808 
    100 H100       28.9364  -51.4293  -56.4935 H         1 UNK         0.0808 
    101 H101       27.8199  -48.9247  -54.2298 H         1 UNK         0.3118 
    102 H102       26.0228  -45.9141  -54.2054 H         1 UNK         0.0546 
    103 H103       24.2798  -47.4281  -53.4235 H         1 UNK         0.0828 
    104 H104       25.1281  -46.7425  -52.0480 H         1 UNK         0.0828 
    105 H105       25.4404  -48.4057  -52.5454 H         1 UNK         0.0828 
    106 H106       27.9724  -45.7166  -53.2387 H         1 UNK         0.3005 
    107 H107       30.1678  -46.4342  -52.4954 H         1 UNK         0.1257 
    108 H108       28.6894  -46.5105  -49.8023 H         1 UNK         0.0775 
    109 H109       28.5427  -45.2160  -50.9581 H         1 UNK         0.0775 
    110 H110       29.6418  -43.0399  -50.1391 H         1 UNK         0.0840 
    111 H111       31.3797  -42.8958  -50.1072 H         1 UNK         0.0840 
    112 H112       30.4214  -48.2215  -50.2358 H         1 UNK         0.2987 
    113 H113       32.3516  -49.6403  -50.3699 H         1 UNK         0.0785 
    114 H114       31.4201  -51.9848  -50.4158 H         1 UNK         0.0798 
    115 H115       30.4643  -51.5884  -51.8433 H         1 UNK         0.0798 
    116 H116       30.1123  -50.8209  -50.3020 H         1 UNK         0.0798 
    117 H117       32.8632  -50.1744  -53.1214 H         1 UNK         0.3079 
    118 H118       35.9708  -51.7754  -52.4862 H         1 UNK         0.0794 
    119 H119       34.4905  -53.7379  -52.9402 H         1 UNK         0.0786 
    120 H120       35.3175  -53.2172  -54.3992 H         1 UNK         0.0786 
    121 H121       33.6171  -52.8164  -54.1576 H         1 UNK         0.0786 
    122 H122       34.6302  -50.6586  -54.8251 H         1 UNK         0.3032 
    123 H123       36.2268  -47.4699  -54.5199 H         1 UNK         0.1094 
    124 H124       36.6668  -48.0985  -56.8738 H         1 UNK         0.0794 
    125 H125       37.6398  -49.0649  -55.7762 H         1 UNK         0.0794 
    126 H126       36.2272  -49.7712  -56.5434 H         1 UNK         0.0794 
    127 H127       34.1872  -47.0044  -55.1751 H         1 UNK         0.3016 
@<TRIPOS>BOND
     1    1    2 1    
     2    1   67 1    
     3    1   68 1    
     4    1   69 1    
     5    2    3 2    
     6    2    4 am   BACKBONE|DICT|INTERRES
     7    4    5 1    
     8    4   70 1    
     9    5    6 1    
    10    5   65 1    
    11    5   71 1    
    12    6    7 1    
    13    6   72 1    
    14    6   73 1    
    15    7    8 1    
    16    8    9 1    
    17    8   74 1    
    18    8   75 1    
    19    9   10 ar   
    20    9   14 ar   
    21   10   11 ar   
    22   10   76 1    
    23   11   12 ar   
    24   11   48 1    
    25   12   13 ar   
    26   12   77 1    
    27   13   14 ar   
    28   13   15 1    
    29   14   78 1    
    30   15   16 1    
    31   15   79 1    
    32   15   80 1    
    33   16   17 1    
    34   17   18 1    
    35   17   81 1    
    36   17   82 1    
    37   18   19 1    
    38   18   22 1    
    39   18   83 1    
    40   19   20 am   BACKBONE|DICT|INTERRES
    41   19   21 2    
    42   20   84 1    
    43   20   85 1    
    44   22   23 am   BACKBONE|DICT|INTERRES
    45   22   86 1    
    46   23   24 2    
    47   23   25 1    
    48   25   26 1    
    49   25   27 1    
    50   25   87 1    
    51   26   88 1    
    52   26   89 1    
    53   26   90 1    
    54   27   28 am   BACKBONE|DICT|INTERRES
    55   27   91 1    
    56   28   29 2    
    57   28   30 1    
    58   30   31 1    
    59   30   32 1    
    60   30   92 1    
    61   31   93 1    
    62   31   94 1    
    63   31   95 1    
    64   32   33 am   BACKBONE|DICT|INTERRES
    65   32   96 1    
    66   33   34 2    
    67   33   35 1    
    68   35   36 1    
    69   35   37 1    
    70   35   97 1    
    71   36   98 1    
    72   36   99 1    
    73   36  100 1    
    74   37   38 am   BACKBONE|DICT|INTERRES
    75   37  101 1    
    76   38   39 2    
    77   38   40 1    
    78   40   41 1    
    79   40   42 1    
    80   40  102 1    
    81   41  103 1    
    82   41  104 1    
    83   41  105 1    
    84   42   43 am   BACKBONE|DICT|INTERRES
    85   42  106 1    
    86   43   44 2    
    87   43   45 1    
    88   45   46 1    
    89   45   49 1    
    90   45  107 1    
    91   46   47 1    
    92   46  108 1    
    93   46  109 1    
    94   47   48 1    
    95   48  110 1    
    96   48  111 1    
    97   49   50 am   BACKBONE|DICT|INTERRES
    98   49  112 1    
    99   50   51 2    
   100   50   52 1    
   101   52   53 1    
   102   52   54 1    
   103   52  113 1    
   104   53  114 1    
   105   53  115 1    
   106   53  116 1    
   107   54   55 am   BACKBONE|DICT|INTERRES
   108   54  117 1    
   109   55   56 2    
   110   55   57 1    
   111   57   58 1    
   112   57   59 1    
   113   57  118 1    
   114   58  119 1    
   115   58  120 1    
   116   58  121 1    
   117   59   60 am   BACKBONE|DICT|INTERRES
   118   59  122 1    
   119   60   61 2    
   120   60   62 1    
   121   62   63 1    
   122   62   64 1    
   123   62  123 1    
   124   63  124 1    
   125   63  125 1    
   126   63  126 1    
   127   64   65 am   BACKBONE|DICT|INTERRES
   128   64  127 1    
   129   65   66 2    
@<TRIPOS>SUBSTRUCTURE
     1 UNK         1 GROUP             0       ****    0 ROOT    
