@<TRIPOS>MOLECULE
3R134
127   129    1
SMALL
USER_CHARGES


@<TRIPOS>ATOM
      1 CA         37.1466  -43.7743  -56.6518 C.3       0 UNK        -0.1968 
      2 C          36.3483  -45.0659  -56.7519 C.2       0 UNK         0.4852 
      3 O          36.7556  -45.9818  -57.4678 O.2       0 UNK        -0.5359 
      4 N          35.2149  -45.1435  -56.0410 N.am      1 UNK        -0.4300 
      5 CA         34.3115  -46.3036  -56.0225 C.3       1 UNK         0.0863 
      6 C6         32.9161  -45.9608  -55.4403 C.3       11 UNK        -0.0953 
      7 S7         32.1420  -44.5089  -56.2293 S.3       11 UNK        -0.2369 
      8 C8         32.1866  -43.2914  -54.8734 C.3       11 UNK         0.0226 
      9 C9         31.1184  -43.5827  -53.8302 C.ar      11 UNK        -0.0699 
     10 C10        31.4437  -44.2107  -52.6248 C.ar      11 UNK        -0.0804 
     11 C11        30.4492  -44.5015  -51.6861 C.ar      11 UNK        -0.0871 
     12 C12        29.1198  -44.1620  -51.9619 C.ar      11 UNK        -0.1008 
     13 C13        28.7847  -43.5216  -53.1599 C.ar      11 UNK        -0.0735 
     14 C14        29.7935  -43.2215  -54.0796 C.ar      11 UNK        -0.0945 
     15 C15        27.3392  -43.1403  -53.4536 C.3       11 UNK         0.0169 
     16 S16        26.6226  -44.1539  -54.7890 S.3       11 UNK        -0.2669 
     17 C17        27.2158  -43.2900  -56.2872 C.3       11 UNK        -0.0850 
     18 CA         26.1698  -43.2748  -57.4301 C.3       10 UNK         0.0855 
     19 C          26.6803  -42.3995  -58.6084 C.2       10 UNK         0.5543 
     20 N          26.2180  -41.1608  -58.7075 N.am      10 UNK        -0.7343 
     21 O          27.5270  -42.8165  -59.3956 O.2       10 UNK        -0.5027 
     22 N          25.8283  -44.6451  -57.8325 N.am      10 UNK        -0.4495 
     23 C          24.9569  -45.0114  -58.7808 C.2       10 UNK         0.4903 
     24 O          24.2652  -44.2210  -59.4247 O.2       10 UNK        -0.4860 
     25 CA         24.8097  -46.5278  -59.0162 C.3       9 UNK         0.0227 
     26 CB         24.3198  -46.8771  -60.4382 C.3       9 UNK        -0.1964 
     27 N          26.0141  -47.2873  -58.6503 N.am      9 UNK        -0.4231 
     28 C          27.2142  -47.2710  -59.2563 C.2       9 UNK         0.5014 
     29 O          27.4511  -46.6313  -60.2816 O.2       9 UNK        -0.5270 
     30 CA         28.3650  -48.0771  -58.6127 C.3       8 UNK         0.0284 
     31 CB         29.4832  -47.1298  -58.1395 C.3       8 UNK        -0.1977 
     32 N          27.9599  -48.9254  -57.4873 N.am      8 UNK        -0.4342 
     33 C          27.1939  -50.0220  -57.5782 C.2       8 UNK         0.5039 
     34 O          26.8203  -50.5068  -58.6465 O.2       8 UNK        -0.5547 
     35 CA         26.7161  -50.6566  -56.2588 C.3       7 UNK         0.0281 
     36 CB         27.6794  -51.7673  -55.8138 C.3       7 UNK        -0.1963 
     37 N          26.5381  -49.6965  -55.1627 N.am      7 UNK        -0.4444 
     38 C          25.7117  -48.6414  -55.1604 C.2       7 UNK         0.5104 
     39 O          24.9886  -48.3479  -56.1119 O.2       7 UNK        -0.5100 
     40 CA         25.7159  -47.7272  -53.9184 C.3       6 UNK         0.0396 
     41 CB         24.7393  -48.2382  -52.8418 C.3       6 UNK        -0.1801 
     42 N          27.0574  -47.4598  -53.3730 N.am      6 UNK        -0.4747 
     43 C          27.8903  -48.3212  -52.7715 C.2       6 UNK         0.5012 
     44 O          27.5925  -49.4874  -52.5017 O.2       6 UNK        -0.5003 
     45 CA         29.3240  -47.8319  -52.4919 C.3       5 UNK         0.0782 
     46 C46        29.5359  -47.6156  -50.9753 C.3       11 UNK        -0.0868 
     47 S47        31.1872  -46.9439  -50.5946 S.3       11 UNK        -0.2515 
     48 C48        30.8208  -45.1743  -50.3723 C.3       11 UNK         0.0199 
     49 N          30.2865  -48.7825  -53.0585 N.am      5 UNK        -0.4607 
     50 C          30.3910  -49.0813  -54.3585 C.2       4 UNK         0.5031 
     51 O          29.7309  -48.5109  -55.2289 O.2       4 UNK        -0.5119 
     52 CA         31.3534  -50.2190  -54.7577 C.3       4 UNK         0.0263 
     53 CB         31.7069  -50.1779  -56.2568 C.3       4 UNK        -0.1967 
     54 N          32.5872  -50.2786  -53.9620 N.am      4 UNK        -0.4237 
     55 C          32.6846  -50.8310  -52.7417 C.2       3 UNK         0.4908 
     56 O          31.7075  -51.2368  -52.1116 O.2       3 UNK        -0.5102 
     57 CA         34.0795  -50.9866  -52.1066 C.3       3 UNK         0.0241 
     58 CB         34.5123  -52.4625  -52.1281 C.3       3 UNK        -0.1971 
     59 N          35.1166  -50.1835  -52.7539 N.am      3 UNK        -0.4139 
     60 C          35.3202  -48.8807  -52.5263 C.2       2 UNK         0.5016 
     61 O          34.6717  -48.2165  -51.7173 O.2       2 UNK        -0.5319 
     62 CA         36.4111  -48.1800  -53.3584 C.3       2 UNK         0.0286 
     63 CB         37.3767  -49.1404  -54.0919 C.3       2 UNK        -0.1963 
     64 N          35.8096  -47.2282  -54.2981 N.am      2 UNK        -0.4790 
     65 C          34.9060  -47.5022  -55.2539 C.2       1 UNK         0.5024 
     66 O          34.5170  -48.6407  -55.5185 O.2       1 UNK        -0.4888 
     67 H67        36.6700  -43.0488  -55.9927 H         1 UNK         0.0892 
     68 H68        38.1446  -43.9792  -56.2654 H         1 UNK         0.0892 
     69 H69        37.2491  -43.3200  -57.6370 H         1 UNK         0.0892 
     70 H70        34.9175  -44.3490  -55.4944 H         1 UNK         0.3107 
     71 H71        34.1704  -46.6274  -57.0562 H         1 UNK         0.0773 
     72 H72        32.2349  -46.8033  -55.5750 H         1 UNK         0.0680 
     73 H73        32.9793  -45.8019  -54.3633 H         1 UNK         0.0680 
     74 H74        32.0240  -42.2965  -55.2904 H         1 UNK         0.0650 
     75 H75        33.1788  -43.2734  -54.4206 H         1 UNK         0.0650 
     76 H76        32.4693  -44.4827  -52.4160 H         1 UNK         0.1397 
     77 H77        28.3473  -44.3888  -51.2396 H         1 UNK         0.1363 
     78 H78        29.5534  -42.7179  -55.0036 H         1 UNK         0.1355 
     79 H79        26.7265  -43.2741  -52.5608 H         1 UNK         0.0707 
     80 H80        27.2754  -42.0804  -53.7032 H         1 UNK         0.0707 
     81 H81        27.4797  -42.2645  -56.0222 H         1 UNK         0.1034 
     82 H82        28.1391  -43.7680  -56.6217 H         1 UNK         0.1034 
     83 H83        25.2521  -42.8250  -57.0458 H         1 UNK         0.0482 
     84 H84        25.5304  -40.8068  -58.0605 H         1 UNK         0.3460 
     85 H85        26.5511  -40.5718  -59.4548 H         1 UNK         0.3460 
     86 H86        26.3341  -45.3739  -57.3541 H         1 UNK         0.2989 
     87 H87        24.0362  -46.8581  -58.3216 H         1 UNK         0.0559 
     88 H88        24.9895  -46.4903  -61.2066 H         1 UNK         0.0848 
     89 H89        24.2359  -47.9551  -60.5758 H         1 UNK         0.0848 
     90 H90        23.3342  -46.4500  -60.6266 H         1 UNK         0.0848 
     91 H91        25.9114  -47.8466  -57.8084 H         1 UNK         0.3144 
     92 H92        28.7739  -48.7247  -59.3908 H         1 UNK         0.0727 
     93 H93        30.3524  -47.6858  -57.7880 H         1 UNK         0.0790 
     94 H94        29.1498  -46.4849  -57.3252 H         1 UNK         0.0790 
     95 H95        29.8245  -46.4826  -58.9486 H         1 UNK         0.0790 
     96 H96        28.3119  -48.6552  -56.5716 H         1 UNK         0.3215 
     97 H97        25.7408  -51.1079  -56.4525 H         1 UNK         0.0863 
     98 H98        27.3167  -52.2757  -54.9202 H         1 UNK         0.0808 
     99 H99        28.6716  -51.3739  -55.5983 H         1 UNK         0.0808 
    100 H100       27.7908  -52.5223  -56.5933 H         1 UNK         0.0808 
    101 H101       27.0760  -49.8529  -54.3149 H         1 UNK         0.3118 
    102 H102       25.3395  -46.7594  -54.2509 H         1 UNK         0.0546 
    103 H103       23.7251  -48.2968  -53.2388 H         1 UNK         0.0828 
    104 H104       24.7117  -47.5692  -51.9820 H         1 UNK         0.0828 
    105 H105       25.0002  -49.2346  -52.4847 H         1 UNK         0.0828 
    106 H106       27.4083  -46.5341  -53.5830 H         1 UNK         0.3005 
    107 H107       29.4740  -46.8802  -53.0067 H         1 UNK         0.1257 
    108 H108       29.4248  -48.5587  -50.4363 H         1 UNK         0.0775 
    109 H109       28.7752  -46.9461  -50.5693 H         1 UNK         0.0775 
    110 H110       30.0293  -45.0524  -49.6311 H         1 UNK         0.0840 
    111 H111       31.7017  -44.6844  -49.9548 H         1 UNK         0.0840 
    112 H112       30.8129  -49.3408  -52.3985 H         1 UNK         0.2987 
    113 H113       30.8084  -51.1492  -54.5867 H         1 UNK         0.0785 
    114 H114       30.8150  -50.2982  -56.8733 H         1 UNK         0.0798 
    115 H115       32.3953  -50.9783  -56.5279 H         1 UNK         0.0798 
    116 H116       32.1652  -49.2296  -56.5374 H         1 UNK         0.0798 
    117 H117       33.4179  -49.8934  -54.4013 H         1 UNK         0.3079 
    118 H118       33.9952  -50.6749  -51.0631 H         1 UNK         0.0794 
    119 H119       33.7810  -53.0923  -51.6190 H         1 UNK         0.0786 
    120 H120       35.4664  -52.6040  -51.6200 H         1 UNK         0.0786 
    121 H121       34.6137  -52.8398  -53.1465 H         1 UNK         0.0786 
    122 H122       35.6800  -50.6415  -53.4560 H         1 UNK         0.3032 
    123 H123       37.0023  -47.5966  -52.6502 H         1 UNK         0.1094 
    124 H124       38.1729  -48.5837  -54.5864 H         1 UNK         0.0794 
    125 H125       37.8573  -49.8259  -53.3924 H         1 UNK         0.0794 
    126 H126       36.8780  -49.7379  -54.8555 H         1 UNK         0.0794 
    127 H127       36.0424  -46.2573  -54.1443 H         1 UNK         0.3016 
@<TRIPOS>BOND
     1    1    2 1    
     2    1   67 1    
     3    1   68 1    
     4    1   69 1    
     5    2    3 2    
     6    2    4 am   BACKBONE|DICT|INTERRES
     7    4    5 1    
     8    4   70 1    
     9    5    6 1    
    10    5   65 1    
    11    5   71 1    
    12    6    7 1    
    13    6   72 1    
    14    6   73 1    
    15    7    8 1    
    16    8    9 1    
    17    8   74 1    
    18    8   75 1    
    19    9   10 ar   
    20    9   14 ar   
    21   10   11 ar   
    22   10   76 1    
    23   11   12 ar   
    24   11   48 1    
    25   12   13 ar   
    26   12   77 1    
    27   13   14 ar   
    28   13   15 1    
    29   14   78 1    
    30   15   16 1    
    31   15   79 1    
    32   15   80 1    
    33   16   17 1    
    34   17   18 1    
    35   17   81 1    
    36   17   82 1    
    37   18   19 1    
    38   18   22 1    
    39   18   83 1    
    40   19   20 am   BACKBONE|DICT|INTERRES
    41   19   21 2    
    42   20   84 1    
    43   20   85 1    
    44   22   23 am   BACKBONE|DICT|INTERRES
    45   22   86 1    
    46   23   24 2    
    47   23   25 1    
    48   25   26 1    
    49   25   27 1    
    50   25   87 1    
    51   26   88 1    
    52   26   89 1    
    53   26   90 1    
    54   27   28 am   BACKBONE|DICT|INTERRES
    55   27   91 1    
    56   28   29 2    
    57   28   30 1    
    58   30   31 1    
    59   30   32 1    
    60   30   92 1    
    61   31   93 1    
    62   31   94 1    
    63   31   95 1    
    64   32   33 am   BACKBONE|DICT|INTERRES
    65   32   96 1    
    66   33   34 2    
    67   33   35 1    
    68   35   36 1    
    69   35   37 1    
    70   35   97 1    
    71   36   98 1    
    72   36   99 1    
    73   36  100 1    
    74   37   38 am   BACKBONE|DICT|INTERRES
    75   37  101 1    
    76   38   39 2    
    77   38   40 1    
    78   40   41 1    
    79   40   42 1    
    80   40  102 1    
    81   41  103 1    
    82   41  104 1    
    83   41  105 1    
    84   42   43 am   BACKBONE|DICT|INTERRES
    85   42  106 1    
    86   43   44 2    
    87   43   45 1    
    88   45   46 1    
    89   45   49 1    
    90   45  107 1    
    91   46   47 1    
    92   46  108 1    
    93   46  109 1    
    94   47   48 1    
    95   48  110 1    
    96   48  111 1    
    97   49   50 am   BACKBONE|DICT|INTERRES
    98   49  112 1    
    99   50   51 2    
   100   50   52 1    
   101   52   53 1    
   102   52   54 1    
   103   52  113 1    
   104   53  114 1    
   105   53  115 1    
   106   53  116 1    
   107   54   55 am   BACKBONE|DICT|INTERRES
   108   54  117 1    
   109   55   56 2    
   110   55   57 1    
   111   57   58 1    
   112   57   59 1    
   113   57  118 1    
   114   58  119 1    
   115   58  120 1    
   116   58  121 1    
   117   59   60 am   BACKBONE|DICT|INTERRES
   118   59  122 1    
   119   60   61 2    
   120   60   62 1    
   121   62   63 1    
   122   62   64 1    
   123   62  123 1    
   124   63  124 1    
   125   63  125 1    
   126   63  126 1    
   127   64   65 am   BACKBONE|DICT|INTERRES
   128   64  127 1    
   129   65   66 2    
@<TRIPOS>SUBSTRUCTURE
     1 UNK         1 GROUP             0       ****    0 ROOT    
