@<TRIPOS>MOLECULE
3R134
127   129    1
SMALL
USER_CHARGES


@<TRIPOS>ATOM
      1 CA         38.7829  -44.6482  -53.7410 C.3       0 UNK        -0.1968 
      2 C          37.8922  -45.8384  -54.0655 C.2       0 UNK         0.4852 
      3 O          38.2283  -46.9681  -53.7096 O.2       0 UNK        -0.5359 
      4 N          36.7542  -45.5918  -54.7268 N.am      1 UNK        -0.4300 
      5 CA         35.7678  -46.6010  -55.1371 C.3       1 UNK         0.0863 
      6 C6         35.1419  -46.2427  -56.5115 C.3       11 UNK        -0.0953 
      7 S7         34.1765  -44.6890  -56.5095 S.3       11 UNK        -0.2369 
      8 C8         32.4905  -45.3239  -56.7694 C.3       11 UNK         0.0226 
      9 C9         31.4721  -44.5444  -55.9562 C.ar      11 UNK        -0.0699 
     10 C10        31.3246  -44.8121  -54.5939 C.ar      11 UNK        -0.0804 
     11 C11        30.3435  -44.1620  -53.8396 C.ar      11 UNK        -0.0871 
     12 C12        29.5355  -43.2003  -54.4551 C.ar      11 UNK        -0.1008 
     13 C13        29.6845  -42.9109  -55.8154 C.ar      11 UNK        -0.0735 
     14 C14        30.6547  -43.5869  -56.5615 C.ar      11 UNK        -0.0945 
     15 C15        28.8055  -41.8653  -56.4854 C.3       11 UNK         0.0169 
     16 S16        27.3331  -42.6114  -57.2548 S.3       11 UNK        -0.2669 
     17 C17        26.2037  -42.8088  -55.8306 C.3       11 UNK        -0.0850 
     18 CA         26.1350  -44.2689  -55.2888 C.3       10 UNK         0.0855 
     19 C          25.2739  -44.4218  -53.9980 C.2       10 UNK         0.5543 
     20 N          25.3545  -43.4827  -53.0640 N.am      10 UNK        -0.7343 
     21 O          24.5663  -45.4083  -53.8015 O.2       10 UNK        -0.5027 
     22 N          25.8032  -45.2623  -56.3204 N.am      10 UNK        -0.4495 
     23 C          24.6839  -45.3350  -57.0536 C.2       10 UNK         0.4903 
     24 O          23.7601  -44.5218  -56.9883 O.2       10 UNK        -0.4860 
     25 CA         24.5820  -46.5377  -58.0166 C.3       9 UNK         0.0227 
     26 CB         23.5634  -46.3237  -59.1565 C.3       9 UNK        -0.1964 
     27 N          25.8917  -46.9579  -58.5310 N.am      9 UNK        -0.4231 
     28 C          26.7289  -46.2626  -59.3182 C.2       9 UNK         0.5014 
     29 O          26.4317  -45.2088  -59.8815 O.2       9 UNK        -0.5270 
     30 CA         28.1573  -46.8157  -59.4857 C.3       8 UNK         0.0284 
     31 CB         29.1723  -45.8792  -58.8076 C.3       8 UNK        -0.1977 
     32 N          28.3123  -48.1564  -58.9158 N.am      8 UNK        -0.4342 
     33 C          28.1285  -49.3020  -59.5853 C.2       8 UNK         0.5039 
     34 O          27.8705  -49.3603  -60.7879 O.2       8 UNK        -0.5547 
     35 CA         28.2286  -50.6053  -58.7723 C.3       7 UNK         0.0281 
     36 CB         29.6517  -51.1814  -58.8500 C.3       7 UNK        -0.1963 
     37 N          27.8416  -50.4291  -57.3678 N.am      7 UNK        -0.4444 
     38 C          26.5772  -50.2348  -56.9602 C.2       7 UNK         0.5104 
     39 O          25.6135  -50.2188  -57.7252 O.2       7 UNK        -0.5100 
     40 CA         26.3346  -49.9671  -55.4625 C.3       6 UNK         0.0396 
     41 CB         25.9717  -51.2730  -54.7391 C.3       6 UNK        -0.1801 
     42 N          27.4569  -49.3284  -54.7709 N.am      6 UNK        -0.4747 
     43 C          27.9925  -48.1408  -55.0885 C.2       6 UNK         0.5012 
     44 O          27.5917  -47.4378  -56.0160 O.2       6 UNK        -0.5003 
     45 CA         29.2165  -47.6885  -54.2710 C.3       5 UNK         0.0782 
     46 C46        28.7539  -46.8733  -53.0347 C.3       11 UNK        -0.0868 
     47 S47        30.1435  -46.2806  -52.0076 S.3       11 UNK        -0.2515 
     48 C48        30.1526  -44.4885  -52.3618 C.3       11 UNK         0.0199 
     49 N          30.1199  -48.7841  -53.8927 N.am      5 UNK        -0.4607 
     50 C          30.6408  -49.7383  -54.6793 C.2       4 UNK         0.5031 
     51 O          30.3437  -49.8747  -55.8664 O.2       4 UNK        -0.5119 
     52 CA         31.6524  -50.7126  -54.0387 C.3       4 UNK         0.0263 
     53 CB         32.8570  -50.9585  -54.9645 C.3       4 UNK        -0.1967 
     54 N          32.1408  -50.2459  -52.7370 N.am      4 UNK        -0.4237 
     55 C          31.5345  -50.4358  -51.5576 C.2       3 UNK         0.4908 
     56 O          30.5245  -51.1258  -51.4214 O.2       3 UNK        -0.5102 
     57 CA         32.0865  -49.6766  -50.3345 C.3       3 UNK         0.0241 
     58 CB         33.0291  -50.5634  -49.4965 C.3       3 UNK        -0.1971 
     59 N          32.6849  -48.3691  -50.6575 N.am      3 UNK        -0.4139 
     60 C          33.8339  -48.1118  -51.2980 C.2       2 UNK         0.5016 
     61 O          34.6344  -48.9807  -51.6511 O.2       2 UNK        -0.5319 
     62 CA         34.1099  -46.6315  -51.6230 C.3       2 UNK         0.0286 
     63 CB         34.7646  -45.9298  -50.4224 C.3       2 UNK        -0.1963 
     64 N          34.9634  -46.4467  -52.8014 N.am      2 UNK        -0.4790 
     65 C          34.7116  -46.8956  -54.0417 C.2       1 UNK         0.5024 
     66 O          33.6853  -47.5092  -54.3387 O.2       1 UNK        -0.4888 
     67 H67        39.7636  -44.7787  -54.1979 H         1 UNK         0.0892 
     68 H68        38.3618  -43.7114  -54.1058 H         1 UNK         0.0892 
     69 H69        38.9179  -44.5623  -52.6632 H         1 UNK         0.0892 
     70 H70        36.5187  -44.6416  -54.9791 H         1 UNK         0.3107 
     71 H71        36.2941  -47.5471  -55.2807 H         1 UNK         0.0773 
     72 H72        35.9368  -46.1323  -57.2505 H         1 UNK         0.0680 
     73 H73        34.5322  -47.0699  -56.8783 H         1 UNK         0.0680 
     74 H74        32.4237  -46.3752  -56.4865 H         1 UNK         0.0650 
     75 H75        32.2559  -45.2791  -57.8336 H         1 UNK         0.0650 
     76 H76        31.9580  -45.5531  -54.1273 H         1 UNK         0.1397 
     77 H77        28.7838  -42.6799  -53.8782 H         1 UNK         0.1363 
     78 H78        30.7643  -43.3751  -57.6162 H         1 UNK         0.1355 
     79 H79        29.3780  -41.3539  -57.2608 H         1 UNK         0.0707 
     80 H80        28.5112  -41.0922  -55.7742 H         1 UNK         0.0707 
     81 H81        26.5149  -42.1160  -55.0490 H         1 UNK         0.1034 
     82 H82        25.2117  -42.4734  -56.1367 H         1 UNK         0.1034 
     83 H83        27.1412  -44.5448  -54.9766 H         1 UNK         0.0482 
     84 H84        24.8106  -43.5917  -52.2223 H         1 UNK         0.3460 
     85 H85        25.9384  -42.6703  -53.1751 H         1 UNK         0.3460 
     86 H86        26.4746  -46.0209  -56.4029 H         1 UNK         0.2989 
     87 H87        24.2227  -47.3723  -57.4127 H         1 UNK         0.0559 
     88 H88        22.5591  -46.1752  -58.7580 H         1 UNK         0.0848 
     89 H89        23.5231  -47.1869  -59.8207 H         1 UNK         0.0848 
     90 H90        23.8037  -45.4466  -59.7577 H         1 UNK         0.0848 
     91 H91        26.2491  -47.8160  -58.1350 H         1 UNK         0.3144 
     92 H92        28.3778  -46.8418  -60.5549 H         1 UNK         0.0727 
     93 H93        28.9870  -45.7890  -57.7362 H         1 UNK         0.0790 
     94 H94        29.1196  -44.8740  -59.2282 H         1 UNK         0.0790 
     95 H95        30.1933  -46.2346  -58.9445 H         1 UNK         0.0790 
     96 H96        28.4979  -48.2015  -57.9214 H         1 UNK         0.3215 
     97 H97        27.5462  -51.3290  -59.2240 H         1 UNK         0.0863 
     98 H98        29.7361  -52.1128  -58.2900 H         1 UNK         0.0808 
     99 H99        30.3932  -50.4848  -58.4571 H         1 UNK         0.0808 
    100 H100       29.9266  -51.3977  -59.8832 H         1 UNK         0.0808 
    101 H101       28.5975  -50.3788  -56.6896 H         1 UNK         0.3118 
    102 H102       25.4818  -49.2888  -55.3894 H         1 UNK         0.0546 
    103 H103       26.7993  -51.9834  -54.7483 H         1 UNK         0.0828 
    104 H104       25.1195  -51.7597  -55.2157 H         1 UNK         0.0828 
    105 H105       25.6965  -51.0895  -53.7004 H         1 UNK         0.0828 
    106 H106       27.8723  -49.8441  -54.0080 H         1 UNK         0.3005 
    107 H107       29.7885  -47.0315  -54.9273 H         1 UNK         0.1257 
    108 H108       28.1119  -47.4825  -52.3954 H         1 UNK         0.0775 
    109 H109       28.1466  -46.0199  -53.3406 H         1 UNK         0.0775 
    110 H110       29.2223  -44.0577  -51.9878 H         1 UNK         0.0840 
    111 H111       30.9585  -44.0221  -51.7938 H         1 UNK         0.0840 
    112 H112       30.4356  -48.7566  -52.9353 H         1 UNK         0.2987 
    113 H113       31.1342  -51.6640  -53.9035 H         1 UNK         0.0785 
    114 H114       32.5403  -51.3848  -55.9174 H         1 UNK         0.0798 
    115 H115       33.5641  -51.6580  -54.5186 H         1 UNK         0.0798 
    116 H116       33.3922  -50.0343  -55.1840 H         1 UNK         0.0798 
    117 H117       32.9828  -49.6795  -52.7475 H         1 UNK         0.3079 
    118 H118       31.2233  -49.4462  -49.7077 H         1 UNK         0.0794 
    119 H119       33.3966  -50.0333  -48.6179 H         1 UNK         0.0786 
    120 H120       33.8918  -50.9045  -50.0692 H         1 UNK         0.0786 
    121 H121       32.5078  -51.4541  -49.1435 H         1 UNK         0.0786 
    122 H122       32.0983  -47.5777  -50.4270 H         1 UNK         0.3032 
    123 H123       33.1570  -46.1445  -51.8387 H         1 UNK         0.1094 
    124 H124       35.7361  -46.3650  -50.1835 H         1 UNK         0.0794 
    125 H125       34.9100  -44.8663  -50.6136 H         1 UNK         0.0794 
    126 H126       34.1427  -46.0129  -49.5300 H         1 UNK         0.0794 
    127 H127       35.8488  -45.9884  -52.6476 H         1 UNK         0.3016 
@<TRIPOS>BOND
     1    1    2 1    
     2    1   67 1    
     3    1   68 1    
     4    1   69 1    
     5    2    3 2    
     6    2    4 am   BACKBONE|DICT|INTERRES
     7    4    5 1    
     8    4   70 1    
     9    5    6 1    
    10    5   65 1    
    11    5   71 1    
    12    6    7 1    
    13    6   72 1    
    14    6   73 1    
    15    7    8 1    
    16    8    9 1    
    17    8   74 1    
    18    8   75 1    
    19    9   10 ar   
    20    9   14 ar   
    21   10   11 ar   
    22   10   76 1    
    23   11   12 ar   
    24   11   48 1    
    25   12   13 ar   
    26   12   77 1    
    27   13   14 ar   
    28   13   15 1    
    29   14   78 1    
    30   15   16 1    
    31   15   79 1    
    32   15   80 1    
    33   16   17 1    
    34   17   18 1    
    35   17   81 1    
    36   17   82 1    
    37   18   19 1    
    38   18   22 1    
    39   18   83 1    
    40   19   20 am   BACKBONE|DICT|INTERRES
    41   19   21 2    
    42   20   84 1    
    43   20   85 1    
    44   22   23 am   BACKBONE|DICT|INTERRES
    45   22   86 1    
    46   23   24 2    
    47   23   25 1    
    48   25   26 1    
    49   25   27 1    
    50   25   87 1    
    51   26   88 1    
    52   26   89 1    
    53   26   90 1    
    54   27   28 am   BACKBONE|DICT|INTERRES
    55   27   91 1    
    56   28   29 2    
    57   28   30 1    
    58   30   31 1    
    59   30   32 1    
    60   30   92 1    
    61   31   93 1    
    62   31   94 1    
    63   31   95 1    
    64   32   33 am   BACKBONE|DICT|INTERRES
    65   32   96 1    
    66   33   34 2    
    67   33   35 1    
    68   35   36 1    
    69   35   37 1    
    70   35   97 1    
    71   36   98 1    
    72   36   99 1    
    73   36  100 1    
    74   37   38 am   BACKBONE|DICT|INTERRES
    75   37  101 1    
    76   38   39 2    
    77   38   40 1    
    78   40   41 1    
    79   40   42 1    
    80   40  102 1    
    81   41  103 1    
    82   41  104 1    
    83   41  105 1    
    84   42   43 am   BACKBONE|DICT|INTERRES
    85   42  106 1    
    86   43   44 2    
    87   43   45 1    
    88   45   46 1    
    89   45   49 1    
    90   45  107 1    
    91   46   47 1    
    92   46  108 1    
    93   46  109 1    
    94   47   48 1    
    95   48  110 1    
    96   48  111 1    
    97   49   50 am   BACKBONE|DICT|INTERRES
    98   49  112 1    
    99   50   51 2    
   100   50   52 1    
   101   52   53 1    
   102   52   54 1    
   103   52  113 1    
   104   53  114 1    
   105   53  115 1    
   106   53  116 1    
   107   54   55 am   BACKBONE|DICT|INTERRES
   108   54  117 1    
   109   55   56 2    
   110   55   57 1    
   111   57   58 1    
   112   57   59 1    
   113   57  118 1    
   114   58  119 1    
   115   58  120 1    
   116   58  121 1    
   117   59   60 am   BACKBONE|DICT|INTERRES
   118   59  122 1    
   119   60   61 2    
   120   60   62 1    
   121   62   63 1    
   122   62   64 1    
   123   62  123 1    
   124   63  124 1    
   125   63  125 1    
   126   63  126 1    
   127   64   65 am   BACKBONE|DICT|INTERRES
   128   64  127 1    
   129   65   66 2    
@<TRIPOS>SUBSTRUCTURE
     1 UNK         1 GROUP             0       ****    0 ROOT    
