@<TRIPOS>MOLECULE
3R134
127   129    1
SMALL
USER_CHARGES


@<TRIPOS>ATOM
      1 CA         35.9521  -43.5461  -51.1755 C.3       0 UNK        -0.1968 
      2 C          36.0733  -43.9687  -52.6323 C.2       0 UNK         0.4852 
      3 O          36.4508  -43.1543  -53.4761 O.2       0 UNK        -0.5359 
      4 N          35.7533  -45.2309  -52.9317 N.am      1 UNK        -0.4300 
      5 CA         35.8091  -45.8302  -54.2631 C.3       1 UNK         0.0863 
      6 C6         34.6110  -45.4370  -55.1733 C.3       11 UNK        -0.0953 
      7 S7         32.9498  -45.6685  -54.4387 S.3       11 UNK        -0.2369 
      8 C8         32.5485  -43.9420  -54.0200 C.3       11 UNK         0.0226 
      9 C9         31.0834  -43.7557  -53.6591 C.ar      11 UNK        -0.0699 
     10 C10        30.6662  -43.7954  -52.3258 C.ar      11 UNK        -0.0804 
     11 C11        29.3271  -43.5600  -51.9943 C.ar      11 UNK        -0.0871 
     12 C12        28.4043  -43.2792  -53.0074 C.ar      11 UNK        -0.1008 
     13 C13        28.8084  -43.2582  -54.3457 C.ar      11 UNK        -0.0735 
     14 C14        30.1485  -43.4929  -54.6630 C.ar      11 UNK        -0.0945 
     15 C15        27.8076  -42.9668  -55.4521 C.3       11 UNK         0.0169 
     16 S16        26.6328  -44.3389  -55.6592 S.3       11 UNK        -0.2669 
     17 C17        25.9940  -44.0076  -57.3389 C.3       11 UNK        -0.0850 
     18 CA         26.0821  -45.2430  -58.2837 C.3       10 UNK         0.0855 
     19 C          25.4965  -44.9577  -59.6994 C.2       10 UNK         0.5543 
     20 N          26.0406  -45.5262  -60.7693 N.am      10 UNK        -0.7343 
     21 O          24.5146  -44.2308  -59.8312 O.2       10 UNK        -0.5027 
     22 N          27.3989  -45.9034  -58.2966 N.am      10 UNK        -0.4495 
     23 C          28.5738  -45.3512  -58.6321 C.2       10 UNK         0.4903 
     24 O          28.7126  -44.1699  -58.9498 O.2       10 UNK        -0.4860 
     25 CA         29.8156  -46.2652  -58.6213 C.3       9 UNK         0.0227 
     26 CB         30.6900  -45.9733  -57.3920 C.3       9 UNK        -0.1964 
     27 N          29.4943  -47.6952  -58.6599 N.am      9 UNK        -0.4231 
     28 C          29.0324  -48.3407  -59.7405 C.2       9 UNK         0.5014 
     29 O          28.8881  -47.8104  -60.8430 O.2       9 UNK        -0.5270 
     30 CA         28.6289  -49.8176  -59.5589 C.3       8 UNK         0.0284 
     31 CB         29.8024  -50.7415  -59.9237 C.3       8 UNK        -0.1977 
     32 N          28.1308  -50.1693  -58.2207 N.am      8 UNK        -0.4342 
     33 C          27.0928  -49.5904  -57.5990 C.2       8 UNK         0.5039 
     34 O          26.4751  -48.6351  -58.0729 O.2       8 UNK        -0.5547 
     35 CA         26.6773  -50.1527  -56.2264 C.3       7 UNK         0.0281 
     36 CB         27.7895  -50.9469  -55.5130 C.3       7 UNK        -0.1963 
     37 N          26.2375  -49.0494  -55.3694 N.am      7 UNK        -0.4444 
     38 C          24.9602  -48.6770  -55.1987 C.2       7 UNK         0.5104 
     39 O          24.0018  -49.3194  -55.6328 O.2       7 UNK        -0.5100 
     40 CA         24.6935  -47.3511  -54.4525 C.3       6 UNK         0.0396 
     41 CB         23.4172  -47.4027  -53.5856 C.3       6 UNK        -0.1801 
     42 N          25.8397  -46.8419  -53.6883 N.am      6 UNK        -0.4747 
     43 C          26.4039  -47.3956  -52.6064 C.2       6 UNK         0.5012 
     44 O          25.9902  -48.4181  -52.0554 O.2       6 UNK        -0.5003 
     45 CA         27.6682  -46.7045  -52.0595 C.3       5 UNK         0.0782 
     46 C46        27.3694  -46.0000  -50.7108 C.3       11 UNK        -0.0868 
     47 S47        28.8499  -45.3051  -49.8975 S.3       11 UNK        -0.2515 
     48 C48        28.8840  -43.6022  -50.5396 C.3       11 UNK         0.0199 
     49 N          28.7663  -47.6674  -51.9669 N.am      5 UNK        -0.4607 
     50 C          29.3297  -48.2719  -53.0173 C.2       4 UNK         0.5031 
     51 O          28.9999  -48.0695  -54.1918 O.2       4 UNK        -0.5119 
     52 CA         30.4292  -49.2886  -52.6970 C.3       4 UNK         0.0263 
     53 CB         29.8377  -50.5777  -52.0919 C.3       4 UNK        -0.1967 
     54 N          31.1372  -49.5831  -53.9357 N.am      4 UNK        -0.4237 
     55 C          32.3379  -50.1574  -54.0475 C.2       3 UNK         0.4908 
     56 O          32.9892  -50.5558  -53.0803 O.2       3 UNK        -0.5102 
     57 CA         32.9085  -50.3222  -55.4709 C.3       3 UNK         0.0241 
     58 CB         32.0217  -49.7218  -56.5835 C.3       3 UNK        -0.1971 
     59 N          34.2325  -49.7074  -55.5398 N.am      3 UNK        -0.4139 
     60 C          35.3902  -50.3215  -55.2620 C.2       2 UNK         0.5016 
     61 O          35.4920  -51.5265  -55.0253 O.2       2 UNK        -0.5319 
     62 CA         36.6626  -49.4520  -55.2633 C.3       2 UNK         0.0286 
     63 CB         37.5173  -49.7513  -56.5066 C.3       2 UNK        -0.1963 
     64 N          36.4045  -48.0075  -55.2021 N.am      2 UNK        -0.4790 
     65 C          35.9811  -47.3504  -54.1130 C.2       1 UNK         0.5024 
     66 O          35.7417  -47.8952  -53.0320 O.2       1 UNK        -0.4888 
     67 H67        35.6010  -44.3612  -50.5427 H         1 UNK         0.0892 
     68 H68        36.9197  -43.2162  -50.7983 H         1 UNK         0.0892 
     69 H69        35.2490  -42.7188  -51.0828 H         1 UNK         0.0892 
     70 H70        35.4888  -45.8886  -52.2081 H         1 UNK         0.3107 
     71 H71        36.7246  -45.4751  -54.7419 H         1 UNK         0.0773 
     72 H72        34.6413  -45.9923  -56.1122 H         1 UNK         0.0680 
     73 H73        34.7259  -44.3935  -55.4689 H         1 UNK         0.0680 
     74 H74        32.7911  -43.2953  -54.8645 H         1 UNK         0.0650 
     75 H75        33.1810  -43.6157  -53.1942 H         1 UNK         0.0650 
     76 H76        31.3839  -44.0032  -51.5438 H         1 UNK         0.1397 
     77 H77        27.3680  -43.0920  -52.7606 H         1 UNK         0.1363 
     78 H78        30.4701  -43.4546  -55.6935 H         1 UNK         0.1355 
     79 H79        28.3323  -42.7909  -56.3926 H         1 UNK         0.0707 
     80 H80        27.2598  -42.0512  -55.2248 H         1 UNK         0.0707 
     81 H81        24.9553  -43.6886  -57.2360 H         1 UNK         0.1034 
     82 H82        26.5178  -43.1590  -57.7812 H         1 UNK         0.1034 
     83 H83        25.4118  -45.9955  -57.8670 H         1 UNK         0.0482 
     84 H84        26.8393  -46.1353  -60.6723 H         1 UNK         0.3460 
     85 H85        25.6495  -45.3446  -61.6800 H         1 UNK         0.3460 
     86 H86        27.3572  -46.9016  -58.1140 H         1 UNK         0.2989 
     87 H87        30.4005  -46.0256  -59.5119 H         1 UNK         0.0559 
     88 H88        30.1713  -46.1930  -56.4571 H         1 UNK         0.0848 
     89 H89        30.9795  -44.9229  -57.3680 H         1 UNK         0.0848 
     90 H90        31.6146  -46.5487  -57.4143 H         1 UNK         0.0848 
     91 H91        29.5570  -48.2028  -57.7906 H         1 UNK         0.3144 
     92 H92        27.8154  -50.0113  -60.2612 H         1 UNK         0.0727 
     93 H93        30.1741  -50.5228  -60.9259 H         1 UNK         0.0790 
     94 H94        29.5021  -51.7895  -59.9157 H         1 UNK         0.0790 
     95 H95        30.6396  -50.6254  -59.2349 H         1 UNK         0.0790 
     96 H96        28.5749  -50.9556  -57.7692 H         1 UNK         0.3215 
     97 H97        25.8470  -50.8387  -56.4060 H         1 UNK         0.0863 
     98 H98        28.7105  -50.3733  -55.4206 H         1 UNK         0.0808 
     99 H99        28.0231  -51.8710  -56.0428 H         1 UNK         0.0808 
    100 H100       27.4756  -51.2340  -54.5094 H         1 UNK         0.0808 
    101 H101       26.9685  -48.4560  -54.9947 H         1 UNK         0.3118 
    102 H102       24.5174  -46.6122  -55.2355 H         1 UNK         0.0546 
    103 H103       23.4696  -48.1859  -52.8291 H         1 UNK         0.0828 
    104 H104       22.5373  -47.6054  -54.1972 H         1 UNK         0.0828 
    105 H105       23.2430  -46.4544  -53.0775 H         1 UNK         0.0828 
    106 H106       26.2686  -46.0136  -54.0859 H         1 UNK         0.3005 
    107 H107       27.9825  -45.9483  -52.7803 H         1 UNK         0.1257 
    108 H108       26.9208  -46.7041  -50.0069 H         1 UNK         0.0775 
    109 H109       26.6324  -45.2071  -50.8510 H         1 UNK         0.0775 
    110 H110       27.9047  -43.1386  -50.4105 H         1 UNK         0.0840 
    111 H111       29.5785  -43.0141  -49.9378 H         1 UNK         0.0840 
    112 H112       29.0794  -47.8914  -51.0341 H         1 UNK         0.2987 
    113 H113       31.1258  -48.8310  -51.9913 H         1 UNK         0.0785 
    114 H114       29.2789  -50.3671  -51.1794 H         1 UNK         0.0798 
    115 H115       30.6188  -51.2910  -51.8293 H         1 UNK         0.0798 
    116 H116       29.1562  -51.0714  -52.7842 H         1 UNK         0.0798 
    117 H117       30.6700  -49.2175  -54.7559 H         1 UNK         0.3079 
    118 H118       32.9941  -51.3949  -55.6572 H         1 UNK         0.0794 
    119 H119       31.0498  -50.2145  -56.6252 H         1 UNK         0.0786 
    120 H120       32.4832  -49.8526  -57.5626 H         1 UNK         0.0786 
    121 H121       31.8567  -48.6544  -56.4391 H         1 UNK         0.0786 
    122 H122       34.2597  -48.7102  -55.6904 H         1 UNK         0.3032 
    123 H123       37.2377  -49.7329  -54.3777 H         1 UNK         0.1094 
    124 H124       37.7613  -50.8130  -56.5671 H         1 UNK         0.0794 
    125 H125       36.9981  -49.4843  -57.4280 H         1 UNK         0.0794 
    126 H126       38.4613  -49.2067  -56.4811 H         1 UNK         0.0794 
    127 H127       36.5884  -47.4836  -56.0467 H         1 UNK         0.3016 
@<TRIPOS>BOND
     1    1    2 1    
     2    1   67 1    
     3    1   68 1    
     4    1   69 1    
     5    2    3 2    
     6    2    4 am   BACKBONE|DICT|INTERRES
     7    4    5 1    
     8    4   70 1    
     9    5    6 1    
    10    5   65 1    
    11    5   71 1    
    12    6    7 1    
    13    6   72 1    
    14    6   73 1    
    15    7    8 1    
    16    8    9 1    
    17    8   74 1    
    18    8   75 1    
    19    9   10 ar   
    20    9   14 ar   
    21   10   11 ar   
    22   10   76 1    
    23   11   12 ar   
    24   11   48 1    
    25   12   13 ar   
    26   12   77 1    
    27   13   14 ar   
    28   13   15 1    
    29   14   78 1    
    30   15   16 1    
    31   15   79 1    
    32   15   80 1    
    33   16   17 1    
    34   17   18 1    
    35   17   81 1    
    36   17   82 1    
    37   18   19 1    
    38   18   22 1    
    39   18   83 1    
    40   19   20 am   BACKBONE|DICT|INTERRES
    41   19   21 2    
    42   20   84 1    
    43   20   85 1    
    44   22   23 am   BACKBONE|DICT|INTERRES
    45   22   86 1    
    46   23   24 2    
    47   23   25 1    
    48   25   26 1    
    49   25   27 1    
    50   25   87 1    
    51   26   88 1    
    52   26   89 1    
    53   26   90 1    
    54   27   28 am   BACKBONE|DICT|INTERRES
    55   27   91 1    
    56   28   29 2    
    57   28   30 1    
    58   30   31 1    
    59   30   32 1    
    60   30   92 1    
    61   31   93 1    
    62   31   94 1    
    63   31   95 1    
    64   32   33 am   BACKBONE|DICT|INTERRES
    65   32   96 1    
    66   33   34 2    
    67   33   35 1    
    68   35   36 1    
    69   35   37 1    
    70   35   97 1    
    71   36   98 1    
    72   36   99 1    
    73   36  100 1    
    74   37   38 am   BACKBONE|DICT|INTERRES
    75   37  101 1    
    76   38   39 2    
    77   38   40 1    
    78   40   41 1    
    79   40   42 1    
    80   40  102 1    
    81   41  103 1    
    82   41  104 1    
    83   41  105 1    
    84   42   43 am   BACKBONE|DICT|INTERRES
    85   42  106 1    
    86   43   44 2    
    87   43   45 1    
    88   45   46 1    
    89   45   49 1    
    90   45  107 1    
    91   46   47 1    
    92   46  108 1    
    93   46  109 1    
    94   47   48 1    
    95   48  110 1    
    96   48  111 1    
    97   49   50 am   BACKBONE|DICT|INTERRES
    98   49  112 1    
    99   50   51 2    
   100   50   52 1    
   101   52   53 1    
   102   52   54 1    
   103   52  113 1    
   104   53  114 1    
   105   53  115 1    
   106   53  116 1    
   107   54   55 am   BACKBONE|DICT|INTERRES
   108   54  117 1    
   109   55   56 2    
   110   55   57 1    
   111   57   58 1    
   112   57   59 1    
   113   57  118 1    
   114   58  119 1    
   115   58  120 1    
   116   58  121 1    
   117   59   60 am   BACKBONE|DICT|INTERRES
   118   59  122 1    
   119   60   61 2    
   120   60   62 1    
   121   62   63 1    
   122   62   64 1    
   123   62  123 1    
   124   63  124 1    
   125   63  125 1    
   126   63  126 1    
   127   64   65 am   BACKBONE|DICT|INTERRES
   128   64  127 1    
   129   65   66 2    
@<TRIPOS>SUBSTRUCTURE
     1 UNK         1 GROUP             0       ****    0 ROOT    
