@<TRIPOS>MOLECULE
3R134
127   129    1
SMALL
USER_CHARGES


@<TRIPOS>ATOM
      1 CA         37.7195  -47.2639  -51.1666 C.3       0 UNK        -0.1968 
      2 C          36.5395  -47.2626  -52.1263 C.2       0 UNK         0.4852 
      3 O          36.0280  -48.3299  -52.4706 O.2       0 UNK        -0.5359 
      4 N          36.0824  -46.0729  -52.5456 N.am      1 UNK        -0.4300 
      5 CA         34.9828  -45.8786  -53.5025 C.3       1 UNK         0.0863 
      6 C6         34.9410  -44.4361  -54.0599 C.3       11 UNK        -0.0953 
      7 S7         34.5092  -43.1672  -52.8198 S.3       11 UNK        -0.2369 
      8 C8         33.5007  -42.0188  -53.8120 C.3       11 UNK         0.0226 
      9 C9         32.1743  -42.6259  -54.2527 C.ar      11 UNK        -0.0699 
     10 C10        31.1582  -42.8464  -53.3176 C.ar      11 UNK        -0.0804 
     11 C11        29.9230  -43.3696  -53.7143 C.ar      11 UNK        -0.0871 
     12 C12        29.7089  -43.6586  -55.0660 C.ar      11 UNK        -0.1008 
     13 C13        30.7204  -43.4607  -56.0076 C.ar      11 UNK        -0.0735 
     14 C14        31.9514  -42.9413  -55.5976 C.ar      11 UNK        -0.0945 
     15 C15        30.4663  -43.8028  -57.4656 C.3       11 UNK         0.0169 
     16 S16        29.7419  -42.3798  -58.3347 S.3       11 UNK        -0.2669 
     17 C17        28.9205  -43.1934  -59.7465 C.3       11 UNK        -0.0850 
     18 CA         27.3842  -43.2932  -59.5449 C.3       10 UNK         0.0855 
     19 C          26.6618  -43.7092  -60.8604 C.2       10 UNK         0.5543 
     20 N          25.8519  -44.7608  -60.8749 N.am      10 UNK        -0.7343 
     21 O          26.8308  -43.0561  -61.8872 O.2       10 UNK        -0.5027 
     22 N          27.0476  -44.1319  -58.3820 N.am      10 UNK        -0.4495 
     23 C          25.9669  -43.9955  -57.6078 C.2       10 UNK         0.4903 
     24 O          25.1172  -43.1168  -57.7615 O.2       10 UNK        -0.4860 
     25 CA         25.8024  -45.0503  -56.4955 C.3       9 UNK         0.0227 
     26 CB         24.6633  -44.7127  -55.5165 C.3       9 UNK        -0.1964 
     27 N          25.5799  -46.3894  -57.0492 N.am      9 UNK        -0.4231 
     28 C          26.5317  -47.1696  -57.5756 C.2       9 UNK         0.5014 
     29 O          27.7134  -46.8311  -57.6679 O.2       9 UNK        -0.5270 
     30 CA         26.0842  -48.5177  -58.1472 C.3       8 UNK         0.0284 
     31 CB         26.0926  -48.4833  -59.6877 C.3       8 UNK        -0.1977 
     32 N          26.9700  -49.5677  -57.6506 N.am      8 UNK        -0.4342 
     33 C          26.6721  -50.8735  -57.6269 C.2       8 UNK         0.5039 
     34 O          25.6257  -51.3458  -58.0744 O.2       8 UNK        -0.5547 
     35 CA         27.6924  -51.8144  -56.9681 C.3       7 UNK         0.0281 
     36 CB         28.9355  -52.0105  -57.8530 C.3       7 UNK        -0.1963 
     37 N          28.0810  -51.3170  -55.6483 N.am      7 UNK        -0.4444 
     38 C          27.3790  -51.5348  -54.5267 C.2       7 UNK         0.5104 
     39 O          26.3871  -52.2630  -54.4728 O.2       7 UNK        -0.5100 
     40 CA         27.8482  -50.8275  -53.2405 C.3       6 UNK         0.0396 
     41 CB         28.7511  -51.7588  -52.4166 C.3       6 UNK        -0.1801 
     42 N          28.5510  -49.5654  -53.4767 N.am      6 UNK        -0.4747 
     43 C          28.0100  -48.4686  -54.0280 C.2       6 UNK         0.5012 
     44 O          26.8259  -48.3777  -54.3528 O.2       6 UNK        -0.5003 
     45 CA         28.9744  -47.2943  -54.2980 C.3       5 UNK         0.0782 
     46 C46        29.1347  -46.4129  -53.0317 C.3       11 UNK        -0.0868 
     47 S47        27.8472  -45.1238  -52.9334 S.3       11 UNK        -0.2515 
     48 C48        28.8343  -43.6075  -52.6692 C.3       11 UNK         0.0199 
     49 N          30.2741  -47.7307  -54.8279 N.am      5 UNK        -0.4607 
     50 C          30.4632  -48.5000  -55.9109 C.2       4 UNK         0.5031 
     51 O          29.5545  -48.9416  -56.6096 O.2       4 UNK        -0.5119 
     52 CA         31.9061  -48.9160  -56.2254 C.3       4 UNK         0.0263 
     53 CB         32.6701  -47.7864  -56.9368 C.3       4 UNK        -0.1967 
     54 N          32.6046  -49.3261  -55.0063 N.am      4 UNK        -0.4237 
     55 C          32.3867  -50.4906  -54.3752 C.2       3 UNK         0.4908 
     56 O          31.6682  -51.3855  -54.8207 O.2       3 UNK        -0.5102 
     57 CA         33.0548  -50.6814  -53.0017 C.3       3 UNK         0.0241 
     58 CB         34.4529  -51.2983  -53.1617 C.3       3 UNK        -0.1971 
     59 N          33.1505  -49.4348  -52.2369 N.am      3 UNK        -0.4139 
     60 C          32.0918  -48.7717  -51.7425 C.2       2 UNK         0.5016 
     61 O          30.9342  -49.1810  -51.8233 O.2       2 UNK        -0.5319 
     62 CA         32.3543  -47.3939  -51.1023 C.3       2 UNK         0.0286 
     63 CB         32.5854  -47.5395  -49.5907 C.3       2 UNK        -0.1963 
     64 N          33.4870  -46.6815  -51.7002 N.am      2 UNK        -0.4790 
     65 C          33.6044  -46.3684  -52.9999 C.2       1 UNK         0.5024 
     66 O          32.6928  -46.5305  -53.8097 O.2       1 UNK        -0.4888 
     67 H67        37.4421  -47.7505  -50.2320 H         1 UNK         0.0892 
     68 H68        38.5542  -47.8127  -51.6019 H         1 UNK         0.0892 
     69 H69        38.0599  -46.2545  -50.9367 H         1 UNK         0.0892 
     70 H70        36.5192  -45.2246  -52.2123 H         1 UNK         0.3107 
     71 H71        35.2140  -46.5246  -54.3526 H         1 UNK         0.0773 
     72 H72        34.2409  -44.3919  -54.8945 H         1 UNK         0.0680 
     73 H73        35.9115  -44.1753  -54.4847 H         1 UNK         0.0680 
     74 H74        34.0822  -41.6876  -54.6738 H         1 UNK         0.0650 
     75 H75        33.3027  -41.1257  -53.2178 H         1 UNK         0.0650 
     76 H76        31.3346  -42.6069  -52.2778 H         1 UNK         0.1397 
     77 H77        28.7547  -44.0462  -55.3906 H         1 UNK         0.1363 
     78 H78        32.7305  -42.7732  -56.3283 H         1 UNK         0.1355 
     79 H79        31.3936  -44.0987  -57.9586 H         1 UNK         0.0707 
     80 H80        29.7965  -44.6624  -57.5262 H         1 UNK         0.0707 
     81 H81        29.1531  -42.6008  -60.6335 H         1 UNK         0.1034 
     82 H82        29.3550  -44.1790  -59.9234 H         1 UNK         0.1034 
     83 H83        27.0248  -42.2835  -59.3366 H         1 UNK         0.0482 
     84 H84        25.6900  -45.2856  -60.0324 H         1 UNK         0.3460 
     85 H85        25.3860  -45.0144  -61.7319 H         1 UNK         0.3460 
     86 H86        27.6372  -44.9425  -58.2190 H         1 UNK         0.2989 
     87 H87        26.7290  -45.0637  -55.9196 H         1 UNK         0.0559 
     88 H88        24.8144  -43.7297  -55.0683 H         1 UNK         0.0848 
     89 H89        24.6190  -45.4334  -54.6995 H         1 UNK         0.0848 
     90 H90        23.6910  -44.7011  -56.0105 H         1 UNK         0.0848 
     91 H91        24.6268  -46.7241  -57.0412 H         1 UNK         0.3144 
     92 H92        25.0700  -48.7272  -57.8001 H         1 UNK         0.0727 
     93 H93        27.0925  -48.2894  -60.0786 H         1 UNK         0.0790 
     94 H94        25.4348  -47.7001  -60.0658 H         1 UNK         0.0790 
     95 H95        25.7453  -49.4252  -60.1122 H         1 UNK         0.0790 
     96 H96        27.8600  -49.2440  -57.2664 H         1 UNK         0.3215 
     97 H97        27.2191  -52.7921  -56.8515 H         1 UNK         0.0863 
     98 H98        29.6537  -52.6821  -57.3823 H         1 UNK         0.0808 
     99 H99        29.4470  -51.0721  -58.0649 H         1 UNK         0.0808 
    100 H100       28.6598  -52.4504  -58.8122 H         1 UNK         0.0808 
    101 H101       28.8517  -50.6598  -55.6206 H         1 UNK         0.3118 
    102 H102       26.9595  -50.6027  -52.6475 H         1 UNK         0.0546 
    103 H103       29.6722  -52.0001  -52.9484 H         1 UNK         0.0828 
    104 H104       28.2453  -52.6996  -52.1950 H         1 UNK         0.0828 
    105 H105       29.0246  -51.3058  -51.4634 H         1 UNK         0.0828 
    106 H106       29.5161  -49.5166  -53.1604 H         1 UNK         0.3005 
    107 H107       28.5283  -46.6951  -55.0942 H         1 UNK         0.1257 
    108 H108       30.1105  -45.9274  -53.0379 H         1 UNK         0.0775 
    109 H109       29.1172  -47.0042  -52.1139 H         1 UNK         0.0775 
    110 H110       28.1617  -42.7489  -52.6646 H         1 UNK         0.0840 
    111 H111       29.2733  -43.6608  -51.6717 H         1 UNK         0.0840 
    112 H112       31.0969  -47.3780  -54.3467 H         1 UNK         0.2987 
    113 H113       31.8683  -49.7712  -56.9041 H         1 UNK         0.0785 
    114 H114       32.1932  -47.5411  -57.8867 H         1 UNK         0.0798 
    115 H115       33.6970  -48.0784  -57.1565 H         1 UNK         0.0798 
    116 H116       32.6994  -46.8691  -56.3494 H         1 UNK         0.0798 
    117 H117       33.1650  -48.6221  -54.5472 H         1 UNK         0.3079 
    118 H118       32.4381  -51.3784  -52.4299 H         1 UNK         0.0794 
    119 H119       34.4010  -52.2501  -53.6923 H         1 UNK         0.0786 
    120 H120       34.9146  -51.4916  -52.1932 H         1 UNK         0.0786 
    121 H121       35.1207  -50.6458  -53.7259 H         1 UNK         0.0786 
    122 H122       34.0749  -49.0235  -52.1486 H         1 UNK         0.3032 
    123 H123       31.4627  -46.7842  -51.2541 H         1 UNK         0.1094 
    124 H124       32.6863  -46.5668  -49.1087 H         1 UNK         0.0794 
    125 H125       31.7451  -48.0484  -49.1158 H         1 UNK         0.0794 
    126 H126       33.4833  -48.1191  -49.3722 H         1 UNK         0.0794 
    127 H127       34.2847  -46.5130  -51.1048 H         1 UNK         0.3016 
@<TRIPOS>BOND
     1    1    2 1    
     2    1   67 1    
     3    1   68 1    
     4    1   69 1    
     5    2    3 2    
     6    2    4 am   BACKBONE|DICT|INTERRES
     7    4    5 1    
     8    4   70 1    
     9    5    6 1    
    10    5   65 1    
    11    5   71 1    
    12    6    7 1    
    13    6   72 1    
    14    6   73 1    
    15    7    8 1    
    16    8    9 1    
    17    8   74 1    
    18    8   75 1    
    19    9   10 ar   
    20    9   14 ar   
    21   10   11 ar   
    22   10   76 1    
    23   11   12 ar   
    24   11   48 1    
    25   12   13 ar   
    26   12   77 1    
    27   13   14 ar   
    28   13   15 1    
    29   14   78 1    
    30   15   16 1    
    31   15   79 1    
    32   15   80 1    
    33   16   17 1    
    34   17   18 1    
    35   17   81 1    
    36   17   82 1    
    37   18   19 1    
    38   18   22 1    
    39   18   83 1    
    40   19   20 am   BACKBONE|DICT|INTERRES
    41   19   21 2    
    42   20   84 1    
    43   20   85 1    
    44   22   23 am   BACKBONE|DICT|INTERRES
    45   22   86 1    
    46   23   24 2    
    47   23   25 1    
    48   25   26 1    
    49   25   27 1    
    50   25   87 1    
    51   26   88 1    
    52   26   89 1    
    53   26   90 1    
    54   27   28 am   BACKBONE|DICT|INTERRES
    55   27   91 1    
    56   28   29 2    
    57   28   30 1    
    58   30   31 1    
    59   30   32 1    
    60   30   92 1    
    61   31   93 1    
    62   31   94 1    
    63   31   95 1    
    64   32   33 am   BACKBONE|DICT|INTERRES
    65   32   96 1    
    66   33   34 2    
    67   33   35 1    
    68   35   36 1    
    69   35   37 1    
    70   35   97 1    
    71   36   98 1    
    72   36   99 1    
    73   36  100 1    
    74   37   38 am   BACKBONE|DICT|INTERRES
    75   37  101 1    
    76   38   39 2    
    77   38   40 1    
    78   40   41 1    
    79   40   42 1    
    80   40  102 1    
    81   41  103 1    
    82   41  104 1    
    83   41  105 1    
    84   42   43 am   BACKBONE|DICT|INTERRES
    85   42  106 1    
    86   43   44 2    
    87   43   45 1    
    88   45   46 1    
    89   45   49 1    
    90   45  107 1    
    91   46   47 1    
    92   46  108 1    
    93   46  109 1    
    94   47   48 1    
    95   48  110 1    
    96   48  111 1    
    97   49   50 am   BACKBONE|DICT|INTERRES
    98   49  112 1    
    99   50   51 2    
   100   50   52 1    
   101   52   53 1    
   102   52   54 1    
   103   52  113 1    
   104   53  114 1    
   105   53  115 1    
   106   53  116 1    
   107   54   55 am   BACKBONE|DICT|INTERRES
   108   54  117 1    
   109   55   56 2    
   110   55   57 1    
   111   57   58 1    
   112   57   59 1    
   113   57  118 1    
   114   58  119 1    
   115   58  120 1    
   116   58  121 1    
   117   59   60 am   BACKBONE|DICT|INTERRES
   118   59  122 1    
   119   60   61 2    
   120   60   62 1    
   121   62   63 1    
   122   62   64 1    
   123   62  123 1    
   124   63  124 1    
   125   63  125 1    
   126   63  126 1    
   127   64   65 am   BACKBONE|DICT|INTERRES
   128   64  127 1    
   129   65   66 2    
@<TRIPOS>SUBSTRUCTURE
     1 UNK         1 GROUP             0       ****    0 ROOT    
