@<TRIPOS>MOLECULE
3R134
127   129    1
SMALL
USER_CHARGES


@<TRIPOS>ATOM
      1 CA         33.4862  -46.6122  -49.3232 C.3       0 UNK        -0.1968 
      2 C          33.1176  -47.0595  -50.7287 C.2       0 UNK         0.4852 
      3 O          33.5329  -48.1399  -51.1514 O.2       0 UNK        -0.5359 
      4 N          32.3301  -46.2467  -51.4492 N.am      1 UNK        -0.4300 
      5 CA         31.8949  -46.4599  -52.8389 C.3       1 UNK         0.0863 
      6 C6         30.9643  -45.3271  -53.3360 C.3       11 UNK        -0.0953 
      7 S7         31.7985  -43.7048  -53.2979 S.3       11 UNK        -0.2369 
      8 C8         30.8901  -42.7739  -54.5801 C.3       11 UNK         0.0226 
      9 C9         30.9727  -43.3765  -55.9814 C.ar      11 UNK        -0.0699 
     10 C10        32.1509  -43.9605  -56.4598 C.ar      11 UNK        -0.0804 
     11 C11        32.1987  -44.5341  -57.7342 C.ar      11 UNK        -0.0871 
     12 C12        31.0617  -44.4946  -58.5487 C.ar      11 UNK        -0.1008 
     13 C13        29.8879  -43.8806  -58.0999 C.ar      11 UNK        -0.0735 
     14 C14        29.8525  -43.3266  -56.8159 C.ar      11 UNK        -0.0945 
     15 C15        28.6761  -43.7648  -59.0168 C.3       11 UNK         0.0169 
     16 S16        27.1737  -44.4734  -58.2694 S.3       11 UNK        -0.2669 
     17 C17        25.8766  -43.4368  -59.0346 C.3       11 UNK        -0.0850 
     18 CA         25.6695  -42.0798  -58.2960 C.3       10 UNK         0.0855 
     19 C          24.6775  -41.1288  -59.0338 C.2       10 UNK         0.5543 
     20 N          23.9697  -40.2493  -58.3359 N.am      10 UNK        -0.7343 
     21 O          24.5710  -41.1610  -60.2576 O.2       10 UNK        -0.5027 
     22 N          25.4321  -42.2503  -56.8502 N.am      10 UNK        -0.4495 
     23 C          24.3487  -42.7880  -56.2741 C.2       10 UNK         0.4903 
     24 O          23.3253  -43.1142  -56.8780 O.2       10 UNK        -0.4860 
     25 CA         24.4824  -43.0436  -54.7605 C.3       9 UNK         0.0227 
     26 CB         23.1563  -43.4658  -54.0910 C.3       9 UNK        -0.1964 
     27 N          25.5568  -44.0123  -54.4933 N.am      9 UNK        -0.4231 
     28 C          25.6137  -45.2839  -54.9190 C.2       9 UNK         0.5014 
     29 O          24.6875  -45.8782  -55.4805 O.2       9 UNK        -0.5270 
     30 CA         26.9369  -46.0216  -54.6829 C.3       8 UNK         0.0284 
     31 CB         27.0814  -46.4878  -53.2231 C.3       8 UNK        -0.1977 
     32 N          26.9580  -47.1724  -55.5782 N.am      8 UNK        -0.4342 
     33 C          28.0472  -47.7411  -56.0962 C.2       8 UNK         0.5039 
     34 O          29.1978  -47.3942  -55.8279 O.2       8 UNK        -0.5547 
     35 CA         27.8043  -48.8621  -57.1202 C.3       7 UNK         0.0281 
     36 CB         27.7836  -48.2898  -58.5469 C.3       7 UNK        -0.1963 
     37 N          28.8532  -49.8745  -57.0314 N.am      7 UNK        -0.4444 
     38 C          28.9599  -50.7896  -56.0623 C.2       7 UNK         0.5104 
     39 O          28.0863  -50.9921  -55.2184 O.2       7 UNK        -0.5100 
     40 CA         30.2672  -51.6035  -56.0068 C.3       6 UNK         0.0396 
     41 CB         30.2519  -52.7734  -57.0098 C.3       6 UNK        -0.1801 
     42 N          31.4763  -50.7758  -56.1328 N.am      6 UNK        -0.4747 
     43 C          31.9314  -50.0994  -57.1995 C.2       6 UNK         0.5012 
     44 O          31.4116  -50.1638  -58.3145 O.2       6 UNK        -0.5003 
     45 CA         33.1293  -49.1534  -56.9917 C.3       5 UNK         0.0782 
     46 C46        32.6890  -47.6885  -57.2450 C.3       11 UNK        -0.0868 
     47 S47        34.0776  -46.5110  -57.1469 S.3       11 UNK        -0.2515 
     48 C48        33.4868  -45.1753  -58.2380 C.3       11 UNK         0.0199 
     49 N          33.7080  -49.3108  -55.6524 N.am      5 UNK        -0.4607 
     50 C          34.9241  -49.8001  -55.3928 C.2       4 UNK         0.5031 
     51 O          35.6781  -50.2611  -56.2505 O.2       4 UNK        -0.5119 
     52 CA         35.3950  -49.7446  -53.9307 C.3       4 UNK         0.0263 
     53 CB         35.9133  -48.3371  -53.5914 C.3       4 UNK        -0.1967 
     54 N          34.3696  -50.1267  -52.9571 N.am      4 UNK        -0.4237 
     55 C          33.9141  -51.3750  -52.7775 C.2       3 UNK         0.4908 
     56 O          34.2445  -52.3327  -53.4768 O.2       3 UNK        -0.5102 
     57 CA         32.9393  -51.5997  -51.6120 C.3       3 UNK         0.0241 
     58 CB         33.6843  -51.5752  -50.2663 C.3       3 UNK        -0.1971 
     59 N          31.8901  -50.5816  -51.6085 N.am      3 UNK        -0.4139 
     60 C          30.6356  -50.7798  -52.0366 C.2       2 UNK         0.5016 
     61 O          30.1957  -51.8808  -52.3679 O.2       2 UNK        -0.5319 
     62 CA         29.7014  -49.5543  -52.1171 C.3       2 UNK         0.0286 
     63 CB         28.6759  -49.5801  -50.9722 C.3       2 UNK        -0.1963 
     64 N          30.3861  -48.2574  -52.1121 N.am      2 UNK        -0.4790 
     65 C          31.2363  -47.8351  -53.0595 C.2       1 UNK         0.5024 
     66 O          31.5740  -48.5190  -54.0232 O.2       1 UNK        -0.4888 
     67 H67        33.1379  -47.3437  -48.5947 H         1 UNK         0.0892 
     68 H68        34.5686  -46.5280  -49.2308 H         1 UNK         0.0892 
     69 H69        33.0473  -45.6466  -49.0729 H         1 UNK         0.0892 
     70 H70        32.0351  -45.3693  -51.0445 H         1 UNK         0.3107 
     71 H71        32.7966  -46.4469  -53.4551 H         1 UNK         0.0773 
     72 H72        30.6374  -45.5333  -54.3571 H         1 UNK         0.0680 
     73 H73        30.0582  -45.2683  -52.7305 H         1 UNK         0.0680 
     74 H74        31.2846  -41.7579  -54.6165 H         1 UNK         0.0650 
     75 H75        29.8493  -42.6916  -54.2632 H         1 UNK         0.0650 
     76 H76        33.0322  -43.9876  -55.8342 H         1 UNK         0.1397 
     77 H77        31.0964  -44.9235  -59.5408 H         1 UNK         0.1363 
     78 H78        28.9449  -42.8530  -56.4687 H         1 UNK         0.1355 
     79 H79        28.5205  -42.7089  -59.2398 H         1 UNK         0.0707 
     80 H80        28.8568  -44.2588  -59.9726 H         1 UNK         0.0707 
     81 H81        24.9449  -44.0049  -59.0413 H         1 UNK         0.1034 
     82 H82        26.1368  -43.2760  -60.0825 H         1 UNK         0.1034 
     83 H83        26.6185  -41.5463  -58.3531 H         1 UNK         0.0482 
     84 H84        24.0520  -40.2116  -57.3326 H         1 UNK         0.3460 
     85 H85        23.3374  -39.6287  -58.8164 H         1 UNK         0.3460 
     86 H86        26.2103  -42.0015  -56.2582 H         1 UNK         0.2989 
     87 H87        24.7899  -42.1007  -54.3056 H         1 UNK         0.0559 
     88 H88        22.3962  -42.6943  -54.2192 H         1 UNK         0.0848 
     89 H89        23.2845  -43.6202  -53.0197 H         1 UNK         0.0848 
     90 H90        22.7538  -44.3858  -54.5156 H         1 UNK         0.0848 
     91 H91        26.3706  -43.6367  -54.0263 H         1 UNK         0.3144 
     92 H92        27.7583  -45.3489  -54.9417 H         1 UNK         0.0727 
     93 H93        28.0160  -47.0275  -53.0758 H         1 UNK         0.0790 
     94 H94        26.2649  -47.1485  -52.9291 H         1 UNK         0.0790 
     95 H95        27.0843  -45.6414  -52.5357 H         1 UNK         0.0790 
     96 H96        26.0357  -47.4390  -55.9043 H         1 UNK         0.3215 
     97 H97        26.8423  -49.3369  -56.9148 H         1 UNK         0.0863 
     98 H98        26.9748  -47.5677  -58.6650 H         1 UNK         0.0808 
     99 H99        27.6301  -49.0730  -59.2893 H         1 UNK         0.0808 
    100 H100       28.7155  -47.7749  -58.7867 H         1 UNK         0.0808 
    101 H101       29.6483  -49.7705  -57.6540 H         1 UNK         0.3118 
    102 H102       30.3224  -52.0409  -55.0100 H         1 UNK         0.0546 
    103 H103       30.1470  -52.4342  -58.0404 H         1 UNK         0.0828 
    104 H104       31.1642  -53.3657  -56.9418 H         1 UNK         0.0828 
    105 H105       29.4151  -53.4427  -56.8067 H         1 UNK         0.0828 
    106 H106       31.9490  -50.5878  -55.2593 H         1 UNK         0.3005 
    107 H107       33.8638  -49.4224  -57.7541 H         1 UNK         0.1257 
    108 H108       31.9271  -47.3798  -56.5255 H         1 UNK         0.0775 
    109 H109       32.2299  -47.5934  -58.2311 H         1 UNK         0.0775 
    110 H110       34.2595  -44.4085  -58.3055 H         1 UNK         0.0840 
    111 H111       33.3596  -45.5711  -59.2469 H         1 UNK         0.0840 
    112 H112       33.1312  -48.9594  -54.8918 H         1 UNK         0.2987 
    113 H113       36.2279  -50.4435  -53.8277 H         1 UNK         0.0785 
    114 H114       36.3331  -48.3006  -52.5860 H         1 UNK         0.0798 
    115 H115       35.1203  -47.5903  -53.6491 H         1 UNK         0.0798 
    116 H116       36.6994  -48.0321  -54.2835 H         1 UNK         0.0798 
    117 H117       34.0611  -49.3957  -52.3167 H         1 UNK         0.3079 
    118 H118       32.5044  -52.5944  -51.7316 H         1 UNK         0.0794 
    119 H119       34.4763  -52.3250  -50.2454 H         1 UNK         0.0786 
    120 H120       33.0092  -51.7943  -49.4390 H         1 UNK         0.0786 
    121 H121       34.1463  -50.6066  -50.0713 H         1 UNK         0.0786 
    122 H122       32.1804  -49.6376  -51.3763 H         1 UNK         0.3032 
    123 H123       29.1612  -49.6327  -53.0635 H         1 UNK         0.1094 
    124 H124       27.9462  -48.7765  -51.0726 H         1 UNK         0.0794 
    125 H125       28.1199  -50.5188  -50.9680 H         1 UNK         0.0794 
    126 H126       29.1563  -49.4814  -49.9980 H         1 UNK         0.0794 
    127 H127       30.2029  -47.6481  -51.3279 H         1 UNK         0.3016 
@<TRIPOS>BOND
     1    1    2 1    
     2    1   67 1    
     3    1   68 1    
     4    1   69 1    
     5    2    3 2    
     6    2    4 am   BACKBONE|DICT|INTERRES
     7    4    5 1    
     8    4   70 1    
     9    5    6 1    
    10    5   65 1    
    11    5   71 1    
    12    6    7 1    
    13    6   72 1    
    14    6   73 1    
    15    7    8 1    
    16    8    9 1    
    17    8   74 1    
    18    8   75 1    
    19    9   10 ar   
    20    9   14 ar   
    21   10   11 ar   
    22   10   76 1    
    23   11   12 ar   
    24   11   48 1    
    25   12   13 ar   
    26   12   77 1    
    27   13   14 ar   
    28   13   15 1    
    29   14   78 1    
    30   15   16 1    
    31   15   79 1    
    32   15   80 1    
    33   16   17 1    
    34   17   18 1    
    35   17   81 1    
    36   17   82 1    
    37   18   19 1    
    38   18   22 1    
    39   18   83 1    
    40   19   20 am   BACKBONE|DICT|INTERRES
    41   19   21 2    
    42   20   84 1    
    43   20   85 1    
    44   22   23 am   BACKBONE|DICT|INTERRES
    45   22   86 1    
    46   23   24 2    
    47   23   25 1    
    48   25   26 1    
    49   25   27 1    
    50   25   87 1    
    51   26   88 1    
    52   26   89 1    
    53   26   90 1    
    54   27   28 am   BACKBONE|DICT|INTERRES
    55   27   91 1    
    56   28   29 2    
    57   28   30 1    
    58   30   31 1    
    59   30   32 1    
    60   30   92 1    
    61   31   93 1    
    62   31   94 1    
    63   31   95 1    
    64   32   33 am   BACKBONE|DICT|INTERRES
    65   32   96 1    
    66   33   34 2    
    67   33   35 1    
    68   35   36 1    
    69   35   37 1    
    70   35   97 1    
    71   36   98 1    
    72   36   99 1    
    73   36  100 1    
    74   37   38 am   BACKBONE|DICT|INTERRES
    75   37  101 1    
    76   38   39 2    
    77   38   40 1    
    78   40   41 1    
    79   40   42 1    
    80   40  102 1    
    81   41  103 1    
    82   41  104 1    
    83   41  105 1    
    84   42   43 am   BACKBONE|DICT|INTERRES
    85   42  106 1    
    86   43   44 2    
    87   43   45 1    
    88   45   46 1    
    89   45   49 1    
    90   45  107 1    
    91   46   47 1    
    92   46  108 1    
    93   46  109 1    
    94   47   48 1    
    95   48  110 1    
    96   48  111 1    
    97   49   50 am   BACKBONE|DICT|INTERRES
    98   49  112 1    
    99   50   51 2    
   100   50   52 1    
   101   52   53 1    
   102   52   54 1    
   103   52  113 1    
   104   53  114 1    
   105   53  115 1    
   106   53  116 1    
   107   54   55 am   BACKBONE|DICT|INTERRES
   108   54  117 1    
   109   55   56 2    
   110   55   57 1    
   111   57   58 1    
   112   57   59 1    
   113   57  118 1    
   114   58  119 1    
   115   58  120 1    
   116   58  121 1    
   117   59   60 am   BACKBONE|DICT|INTERRES
   118   59  122 1    
   119   60   61 2    
   120   60   62 1    
   121   62   63 1    
   122   62   64 1    
   123   62  123 1    
   124   63  124 1    
   125   63  125 1    
   126   63  126 1    
   127   64   65 am   BACKBONE|DICT|INTERRES
   128   64  127 1    
   129   65   66 2    
@<TRIPOS>SUBSTRUCTURE
     1 UNK         1 GROUP             0       ****    0 ROOT    
