@<TRIPOS>MOLECULE
3R134
127   129    1
SMALL
USER_CHARGES


@<TRIPOS>ATOM
      1 CA         38.6152  -46.2630  -52.2483 C.3       0 UNK        -0.1968 
      2 C          37.1023  -46.1705  -52.1142 C.2       0 UNK         0.4852 
      3 O          36.6023  -45.9770  -51.0053 O.2       0 UNK        -0.5359 
      4 N          36.3785  -46.3166  -53.2346 N.am      1 UNK        -0.4300 
      5 CA         34.9127  -46.2395  -53.3509 C.3       1 UNK         0.0863 
      6 C6         34.3464  -44.8213  -53.0488 C.3       11 UNK        -0.0953 
      7 S7         34.8290  -43.6290  -54.3398 S.3       11 UNK        -0.2369 
      8 C8         33.8253  -42.1757  -53.8964 C.3       11 UNK         0.0226 
      9 C9         32.3406  -42.3660  -54.1856 C.ar      11 UNK        -0.0699 
     10 C10        31.4361  -42.5496  -53.1344 C.ar      11 UNK        -0.0804 
     11 C11        30.0647  -42.6643  -53.3846 C.ar      11 UNK        -0.0871 
     12 C12        29.6026  -42.6063  -54.7036 C.ar      11 UNK        -0.1008 
     13 C13        30.4970  -42.4482  -55.7663 C.ar      11 UNK        -0.0735 
     14 C14        31.8647  -42.3179  -55.5007 C.ar      11 UNK        -0.0945 
     15 C15        29.9802  -42.4407  -57.1982 C.3       11 UNK         0.0169 
     16 S16        29.7648  -44.1421  -57.8036 S.3       11 UNK        -0.2669 
     17 C17        29.0228  -43.8800  -59.4488 C.3       11 UNK        -0.0850 
     18 CA         27.4747  -44.0040  -59.4579 C.3       10 UNK         0.0855 
     19 C          26.9296  -43.8558  -60.9091 C.2       10 UNK         0.5543 
     20 N          26.3644  -44.8934  -61.5158 N.am      10 UNK        -0.7343 
     21 O          27.0247  -42.7787  -61.4919 O.2       10 UNK        -0.5027 
     22 N          27.0104  -45.2063  -58.7457 N.am      10 UNK        -0.4495 
     23 C          25.7542  -45.4288  -58.3391 C.2       10 UNK         0.4903 
     24 O          24.8361  -44.6223  -58.4944 O.2       10 UNK        -0.4860 
     25 CA         25.4771  -46.7603  -57.6129 C.3       9 UNK         0.0227 
     26 CB         24.0683  -47.3142  -57.9143 C.3       9 UNK        -0.1964 
     27 N          26.5041  -47.7887  -57.8281 N.am      9 UNK        -0.4231 
     28 C          26.8087  -48.4227  -58.9699 C.2       9 UNK         0.5014 
     29 O          26.2947  -48.1667  -60.0601 O.2       9 UNK        -0.5270 
     30 CA         27.8842  -49.5231  -58.8847 C.3       8 UNK         0.0284 
     31 CB         29.2562  -48.9521  -59.2786 C.3       8 UNK        -0.1977 
     32 N          27.9851  -50.1677  -57.5669 N.am      8 UNK        -0.4342 
     33 C          27.0164  -50.9002  -56.9985 C.2       8 UNK         0.5039 
     34 O          25.9311  -51.1270  -57.5351 O.2       8 UNK        -0.5547 
     35 CA         27.2912  -51.4915  -55.6103 C.3       7 UNK         0.0281 
     36 CB         28.3898  -52.5714  -55.6563 C.3       7 UNK        -0.1963 
     37 N          27.5902  -50.4718  -54.5943 N.am      7 UNK        -0.4444 
     38 C          27.3213  -50.6514  -53.2888 C.2       7 UNK         0.5104 
     39 O          26.7772  -51.6659  -52.8493 O.2       7 UNK        -0.5100 
     40 CA         27.7294  -49.5662  -52.2707 C.3       6 UNK         0.0396 
     41 CB         28.9866  -50.0064  -51.5045 C.3       6 UNK        -0.1801 
     42 N          27.9760  -48.2468  -52.8437 N.am      6 UNK        -0.4747 
     43 C          27.0404  -47.3962  -53.2872 C.2       6 UNK         0.5012 
     44 O          25.8309  -47.6145  -53.2147 O.2       6 UNK        -0.5003 
     45 CA         27.5419  -46.0978  -53.9660 C.3       5 UNK         0.0782 
     46 C46        27.3211  -44.8516  -53.0699 C.3       11 UNK        -0.0868 
     47 S47        28.6586  -44.5364  -51.8617 S.3       11 UNK        -0.2515 
     48 C48        29.0872  -42.8011  -52.2230 C.3       11 UNK         0.0199 
     49 N          28.9200  -46.1943  -54.4715 N.am      5 UNK        -0.4607 
     50 C          29.3382  -47.0945  -55.3688 C.2       4 UNK         0.5031 
     51 O          28.5672  -47.8773  -55.9204 O.2       4 UNK        -0.5119 
     52 CA         30.8481  -47.1994  -55.6392 C.3       4 UNK         0.0263 
     53 CB         31.6412  -45.9731  -55.1640 C.3       4 UNK        -0.1967 
     54 N          31.4063  -48.3874  -54.9899 N.am      4 UNK        -0.4237 
     55 C          31.2741  -49.6485  -55.4272 C.2       3 UNK         0.4908 
     56 O          30.6406  -49.9532  -56.4375 O.2       3 UNK        -0.5102 
     57 CA         31.9705  -50.7569  -54.6152 C.3       3 UNK         0.0241 
     58 CB         32.5676  -51.8466  -55.5259 C.3       3 UNK        -0.1971 
     59 N          33.0334  -50.2183  -53.7606 N.am      3 UNK        -0.4139 
     60 C          33.1373  -50.4001  -52.4378 C.2       2 UNK         0.5016 
     61 O          32.3535  -51.0774  -51.7728 O.2       2 UNK        -0.5319 
     62 CA         34.3158  -49.7073  -51.7263 C.3       2 UNK         0.0286 
     63 CB         35.4631  -50.7042  -51.4953 C.3       2 UNK        -0.1963 
     64 N          34.8410  -48.5275  -52.4263 N.am      2 UNK        -0.4790 
     65 C          34.1759  -47.3740  -52.5966 C.2       1 UNK         0.5024 
     66 O          33.0102  -47.2187  -52.2305 O.2       1 UNK        -0.4888 
     67 H67        39.0783  -45.3370  -51.9086 H         1 UNK         0.0892 
     68 H68        38.9971  -47.0796  -51.6362 H         1 UNK         0.0892 
     69 H69        38.9250  -46.4378  -53.2785 H         1 UNK         0.0892 
     70 H70        36.8648  -46.4673  -54.1080 H         1 UNK         0.3107 
     71 H71        34.7057  -46.4524  -54.4000 H         1 UNK         0.0773 
     72 H72        34.6847  -44.4577  -52.0780 H         1 UNK         0.0680 
     73 H73        33.2590  -44.8234  -52.9999 H         1 UNK         0.0680 
     74 H74        33.9893  -41.9352  -52.8448 H         1 UNK         0.0650 
     75 H75        34.1892  -41.3175  -54.4629 H         1 UNK         0.0650 
     76 H76        31.7989  -42.5832  -52.1161 H         1 UNK         0.1397 
     77 H77        28.5462  -42.6873  -54.9138 H         1 UNK         0.1363 
     78 H78        32.5620  -42.1882  -56.3171 H         1 UNK         0.1355 
     79 H79        29.0267  -41.9125  -57.2478 H         1 UNK         0.0707 
     80 H80        30.6705  -41.9050  -57.8516 H         1 UNK         0.0707 
     81 H81        29.3314  -42.9050  -59.8314 H         1 UNK         0.1034 
     82 H82        29.4620  -44.6170  -60.1241 H         1 UNK         0.1034 
     83 H83        27.0838  -43.1483  -58.9039 H         1 UNK         0.0482 
     84 H84        26.2845  -45.7811  -61.0411 H         1 UNK         0.3460 
     85 H85        26.0129  -44.7880  -62.4543 H         1 UNK         0.3460 
     86 H86        27.7085  -45.9109  -58.5632 H         1 UNK         0.2989 
     87 H87        25.5057  -46.5312  -56.5487 H         1 UNK         0.0559 
     88 H88        23.9219  -47.4932  -58.9798 H         1 UNK         0.0848 
     89 H89        23.2947  -46.6150  -57.5948 H         1 UNK         0.0848 
     90 H90        23.8910  -48.2529  -57.3891 H         1 UNK         0.0848 
     91 H91        27.0897  -48.0075  -57.0238 H         1 UNK         0.3144 
     92 H92        27.6155  -50.2953  -59.6083 H         1 UNK         0.0727 
     93 H93        29.5866  -48.1830  -58.5800 H         1 UNK         0.0790 
     94 H94        29.2237  -48.5012  -60.2714 H         1 UNK         0.0790 
     95 H95        30.0183  -49.7313  -59.3004 H         1 UNK         0.0790 
     96 H96        28.8628  -50.0261  -57.0675 H         1 UNK         0.3215 
     97 H97        26.3629  -51.9920  -55.3244 H         1 UNK         0.0863 
     98 H98        29.3665  -52.1506  -55.8859 H         1 UNK         0.0808 
     99 H99        28.1703  -53.3181  -56.4205 H         1 UNK         0.0808 
    100 H100       28.4699  -53.0988  -54.7059 H         1 UNK         0.0808 
    101 H101       27.9852  -49.5944  -54.9184 H         1 UNK         0.3118 
    102 H102       26.9121  -49.4740  -51.5522 H         1 UNK         0.0546 
    103 H103       28.8414  -50.9804  -51.0350 H         1 UNK         0.0828 
    104 H104       29.2380  -49.3020  -50.7113 H         1 UNK         0.0828 
    105 H105       29.8498  -50.0905  -52.1645 H         1 UNK         0.0828 
    106 H106       28.9409  -47.9660  -52.9366 H         1 UNK         0.3005 
    107 H107       26.9049  -45.9721  -54.8419 H         1 UNK         0.1257 
    108 H108       26.3765  -44.9184  -52.5261 H         1 UNK         0.0775 
    109 H109       27.2032  -43.9787  -53.7097 H         1 UNK         0.0775 
    110 H110       28.1817  -42.2247  -52.4192 H         1 UNK         0.0840 
    111 H111       29.5231  -42.3633  -51.3237 H         1 UNK         0.0840 
    112 H112       29.5887  -45.5682  -54.0445 H         1 UNK         0.2987 
    113 H113       30.9769  -47.2889  -56.7197 H         1 UNK         0.0785 
    114 H114       31.6008  -45.8556  -54.0821 H         1 UNK         0.0798 
    115 H115       31.2521  -45.0596  -55.6027 H         1 UNK         0.0798 
    116 H116       32.6853  -46.0388  -55.4648 H         1 UNK         0.0798 
    117 H117       31.8912  -48.2338  -54.1164 H         1 UNK         0.3079 
    118 H118       31.1903  -51.2170  -54.0054 H         1 UNK         0.0794 
    119 H119       33.3235  -51.4389  -56.1980 H         1 UNK         0.0786 
    120 H120       31.8004  -52.3145  -56.1438 H         1 UNK         0.0786 
    121 H121       33.0329  -52.6391  -54.9396 H         1 UNK         0.0786 
    122 H122       33.7434  -49.6648  -54.2195 H         1 UNK         0.3032 
    123 H123       33.9476  -49.3782  -50.7516 H         1 UNK         0.1094 
    124 H124       35.8895  -51.0556  -52.4357 H         1 UNK         0.0794 
    125 H125       36.2651  -50.2577  -50.9071 H         1 UNK         0.0794 
    126 H126       35.1140  -51.5814  -50.9483 H         1 UNK         0.0794 
    127 H127       35.7937  -48.5812  -52.7577 H         1 UNK         0.3016 
@<TRIPOS>BOND
     1    1    2 1    
     2    1   67 1    
     3    1   68 1    
     4    1   69 1    
     5    2    3 2    
     6    2    4 am   BACKBONE|DICT|INTERRES
     7    4    5 1    
     8    4   70 1    
     9    5    6 1    
    10    5   65 1    
    11    5   71 1    
    12    6    7 1    
    13    6   72 1    
    14    6   73 1    
    15    7    8 1    
    16    8    9 1    
    17    8   74 1    
    18    8   75 1    
    19    9   10 ar   
    20    9   14 ar   
    21   10   11 ar   
    22   10   76 1    
    23   11   12 ar   
    24   11   48 1    
    25   12   13 ar   
    26   12   77 1    
    27   13   14 ar   
    28   13   15 1    
    29   14   78 1    
    30   15   16 1    
    31   15   79 1    
    32   15   80 1    
    33   16   17 1    
    34   17   18 1    
    35   17   81 1    
    36   17   82 1    
    37   18   19 1    
    38   18   22 1    
    39   18   83 1    
    40   19   20 am   BACKBONE|DICT|INTERRES
    41   19   21 2    
    42   20   84 1    
    43   20   85 1    
    44   22   23 am   BACKBONE|DICT|INTERRES
    45   22   86 1    
    46   23   24 2    
    47   23   25 1    
    48   25   26 1    
    49   25   27 1    
    50   25   87 1    
    51   26   88 1    
    52   26   89 1    
    53   26   90 1    
    54   27   28 am   BACKBONE|DICT|INTERRES
    55   27   91 1    
    56   28   29 2    
    57   28   30 1    
    58   30   31 1    
    59   30   32 1    
    60   30   92 1    
    61   31   93 1    
    62   31   94 1    
    63   31   95 1    
    64   32   33 am   BACKBONE|DICT|INTERRES
    65   32   96 1    
    66   33   34 2    
    67   33   35 1    
    68   35   36 1    
    69   35   37 1    
    70   35   97 1    
    71   36   98 1    
    72   36   99 1    
    73   36  100 1    
    74   37   38 am   BACKBONE|DICT|INTERRES
    75   37  101 1    
    76   38   39 2    
    77   38   40 1    
    78   40   41 1    
    79   40   42 1    
    80   40  102 1    
    81   41  103 1    
    82   41  104 1    
    83   41  105 1    
    84   42   43 am   BACKBONE|DICT|INTERRES
    85   42  106 1    
    86   43   44 2    
    87   43   45 1    
    88   45   46 1    
    89   45   49 1    
    90   45  107 1    
    91   46   47 1    
    92   46  108 1    
    93   46  109 1    
    94   47   48 1    
    95   48  110 1    
    96   48  111 1    
    97   49   50 am   BACKBONE|DICT|INTERRES
    98   49  112 1    
    99   50   51 2    
   100   50   52 1    
   101   52   53 1    
   102   52   54 1    
   103   52  113 1    
   104   53  114 1    
   105   53  115 1    
   106   53  116 1    
   107   54   55 am   BACKBONE|DICT|INTERRES
   108   54  117 1    
   109   55   56 2    
   110   55   57 1    
   111   57   58 1    
   112   57   59 1    
   113   57  118 1    
   114   58  119 1    
   115   58  120 1    
   116   58  121 1    
   117   59   60 am   BACKBONE|DICT|INTERRES
   118   59  122 1    
   119   60   61 2    
   120   60   62 1    
   121   62   63 1    
   122   62   64 1    
   123   62  123 1    
   124   63  124 1    
   125   63  125 1    
   126   63  126 1    
   127   64   65 am   BACKBONE|DICT|INTERRES
   128   64  127 1    
   129   65   66 2    
@<TRIPOS>SUBSTRUCTURE
     1 UNK         1 GROUP             0       ****    0 ROOT    
