@<TRIPOS>MOLECULE
3R134
127   129    1
SMALL
USER_CHARGES


@<TRIPOS>ATOM
      1 CA         36.3672  -43.8125  -49.4600 C.3       0 UNK        -0.1968 
      2 C          35.4361  -44.5201  -50.4339 C.2       0 UNK         0.4852 
      3 O          35.8429  -45.4949  -51.0677 O.2       0 UNK        -0.5359 
      4 N          34.1963  -44.0305  -50.5618 N.am      1 UNK        -0.4300 
      5 CA         33.1466  -44.6004  -51.4126 C.3       1 UNK         0.0863 
      6 C6         31.9485  -43.6309  -51.5790 C.3       11 UNK        -0.0953 
      7 S7         32.4407  -42.0020  -52.2395 S.3       11 UNK        -0.2369 
      8 C8         31.2369  -41.7640  -53.5928 C.3       11 UNK         0.0226 
      9 C9         31.4344  -42.6283  -54.8408 C.ar      11 UNK        -0.0699 
     10 C10        32.5675  -43.4274  -55.0497 C.ar      11 UNK        -0.0804 
     11 C11        32.7037  -44.1866  -56.2147 C.ar      11 UNK        -0.0871 
     12 C12        31.7038  -44.1306  -57.1912 C.ar      11 UNK        -0.1008 
     13 C13        30.5765  -43.3231  -57.0103 C.ar      11 UNK        -0.0735 
     14 C14        30.4483  -42.5827  -55.8320 C.ar      11 UNK        -0.0945 
     15 C15        29.5286  -43.2049  -58.1112 C.3       11 UNK         0.0169 
     16 S16        28.1717  -44.4041  -57.9275 S.3       11 UNK        -0.2669 
     17 C17        27.1707  -43.6388  -56.6032 C.3       11 UNK        -0.0850 
     18 CA         25.7601  -44.2674  -56.4375 C.3       10 UNK         0.0855 
     19 C          24.8282  -43.9806  -57.6473 C.2       10 UNK         0.5543 
     20 N          24.4627  -44.9580  -58.4656 N.am      10 UNK        -0.7343 
     21 O          24.4014  -42.8426  -57.8295 O.2       10 UNK        -0.5027 
     22 N          25.8231  -45.6815  -56.0263 N.am      10 UNK        -0.4495 
     23 C          25.7803  -46.0985  -54.7511 C.2       10 UNK         0.4903 
     24 O          25.6753  -45.3302  -53.7936 O.2       10 UNK        -0.4860 
     25 CA         25.9154  -47.6117  -54.4713 C.3       9 UNK         0.0227 
     26 CB         25.1916  -48.0536  -53.1810 C.3       9 UNK        -0.1964 
     27 N          25.5521  -48.4660  -55.6047 N.am      9 UNK        -0.4231 
     28 C          24.3450  -48.6021  -56.1780 C.2       9 UNK         0.5014 
     29 O          23.3189  -48.0722  -55.7484 O.2       9 UNK        -0.5270 
     30 CA         24.2780  -49.4632  -57.4620 C.3       8 UNK         0.0284 
     31 CB         23.1376  -49.0223  -58.4050 C.3       8 UNK        -0.1977 
     32 N          25.5513  -49.5358  -58.1969 N.am      8 UNK        -0.4342 
     33 C          26.2622  -48.4972  -58.6578 C.2       8 UNK         0.5039 
     34 O          25.9049  -47.3215  -58.5595 O.2       8 UNK        -0.5547 
     35 CA         27.6462  -48.8135  -59.2453 C.3       7 UNK         0.0281 
     36 CB         27.7025  -48.4435  -60.7359 C.3       7 UNK        -0.1963 
     37 N          28.6948  -48.0876  -58.5241 N.am      7 UNK        -0.4444 
     38 C          28.9344  -48.1829  -57.2097 C.2       7 UNK         0.5104 
     39 O          28.3485  -48.9657  -56.4581 O.2       7 UNK        -0.5100 
     40 CA         30.0005  -47.2377  -56.6455 C.3       6 UNK         0.0396 
     41 CB         29.5695  -46.6047  -55.3118 C.3       6 UNK        -0.1801 
     42 N          31.2585  -47.9397  -56.4430 N.am      6 UNK        -0.4747 
     43 C          32.1786  -48.1644  -57.3898 C.2       6 UNK         0.5012 
     44 O          32.0248  -47.8669  -58.5755 O.2       6 UNK        -0.5003 
     45 CA         33.4994  -48.8171  -56.9360 C.3       5 UNK         0.0782 
     46 C46        34.5789  -47.7851  -56.4968 C.3       11 UNK        -0.0868 
     47 S47        34.0339  -46.4742  -55.3342 S.3       11 UNK        -0.2515 
     48 C48        33.9563  -45.0232  -56.4406 C.3       11 UNK         0.0199 
     49 N          33.2492  -49.8312  -55.9060 N.am      5 UNK        -0.4607 
     50 C          33.4212  -51.1496  -56.0860 C.2       4 UNK         0.5031 
     51 O          33.8729  -51.6458  -57.1187 O.2       4 UNK        -0.5119 
     52 CA         33.0272  -52.0910  -54.9312 C.3       4 UNK         0.0263 
     53 CB         34.2483  -52.3944  -54.0479 C.3       4 UNK        -0.1967 
     54 N          31.9506  -51.5617  -54.0951 N.am      4 UNK        -0.4237 
     55 C          30.6870  -51.3617  -54.4961 C.2       3 UNK         0.4908 
     56 O          30.2487  -51.7518  -55.5784 O.2       3 UNK        -0.5102 
     57 CA         29.7592  -50.5800  -53.5413 C.3       3 UNK         0.0241 
     58 CB         28.6992  -51.5110  -52.9300 C.3       3 UNK        -0.1971 
     59 N          30.4437  -49.8541  -52.4598 N.am      3 UNK        -0.4139 
     60 C          31.3477  -48.8804  -52.6327 C.2       2 UNK         0.5016 
     61 O          31.7572  -48.5144  -53.7370 O.2       2 UNK        -0.5319 
     62 CA         31.9462  -48.2605  -51.3696 C.3       2 UNK         0.0286 
     63 CB         33.0878  -49.1388  -50.8232 C.3       2 UNK        -0.1963 
     64 N          32.4555  -46.9354  -51.7091 N.am      2 UNK        -0.4790 
     65 C          32.6611  -45.9448  -50.8369 C.2       1 UNK         0.5024 
     66 O          32.4530  -46.0484  -49.6249 O.2       1 UNK        -0.4888 
     67 H67        37.2523  -43.4507  -49.9826 H         1 UNK         0.0892 
     68 H68        35.8853  -42.9606  -48.9803 H         1 UNK         0.0892 
     69 H69        36.6892  -44.5027  -48.6807 H         1 UNK         0.0892 
     70 H70        33.9164  -43.2335  -50.0087 H         1 UNK         0.3107 
     71 H71        33.5827  -44.7876  -52.3961 H         1 UNK         0.0773 
     72 H72        31.2001  -44.0728  -52.2400 H         1 UNK         0.0680 
     73 H73        31.4486  -43.4650  -50.6226 H         1 UNK         0.0680 
     74 H74        31.2812  -40.7171  -53.8959 H         1 UNK         0.0650 
     75 H75        30.2337  -41.9259  -53.1951 H         1 UNK         0.0650 
     76 H76        33.3616  -43.4612  -54.3192 H         1 UNK         0.1397 
     77 H77        31.8099  -44.7028  -58.1030 H         1 UNK         0.1363 
     78 H78        29.5823  -41.9499  -55.6938 H         1 UNK         0.1355 
     79 H79        30.0000  -43.3671  -59.0816 H         1 UNK         0.0707 
     80 H80        29.1236  -42.1923  -58.1430 H         1 UNK         0.0707 
     81 H81        27.7186  -43.7232  -55.6640 H         1 UNK         0.1034 
     82 H82        27.0813  -42.5685  -56.7981 H         1 UNK         0.1034 
     83 H83        25.2799  -43.7144  -55.6279 H         1 UNK         0.0482 
     84 H84        24.9083  -45.8735  -58.4205 H         1 UNK         0.3460 
     85 H85        23.8457  -44.7452  -59.2320 H         1 UNK         0.3460 
     86 H86        25.8977  -46.3557  -56.7815 H         1 UNK         0.2989 
     87 H87        26.9794  -47.7847  -54.3103 H         1 UNK         0.0559 
     88 H88        24.1233  -47.8394  -53.2207 H         1 UNK         0.0848 
     89 H89        25.5924  -47.5345  -52.3097 H         1 UNK         0.0848 
     90 H90        25.3146  -49.1217  -53.0025 H         1 UNK         0.0848 
     91 H91        26.3447  -48.9160  -56.0542 H         1 UNK         0.3144 
     92 H92        24.0584  -50.4788  -57.1295 H         1 UNK         0.0727 
     93 H93        23.2549  -47.9859  -58.7236 H         1 UNK         0.0790 
     94 H94        22.1674  -49.1025  -57.9132 H         1 UNK         0.0790 
     95 H95        23.0975  -49.6453  -59.2984 H         1 UNK         0.0790 
     96 H96        25.9449  -50.4628  -58.2917 H         1 UNK         0.3215 
     97 H97        27.8495  -49.8815  -59.1430 H         1 UNK         0.0863 
     98 H98        28.6687  -48.6962  -61.1730 H         1 UNK         0.0808 
     99 H99        27.5302  -47.3775  -60.8926 H         1 UNK         0.0808 
    100 H100       26.9404  -48.9826  -61.3002 H         1 UNK         0.0808 
    101 H101       29.2227  -47.4100  -59.0550 H         1 UNK         0.3118 
    102 H102       30.1633  -46.4306  -57.3594 H         1 UNK         0.0546 
    103 H103       30.3289  -45.9159  -54.9404 H         1 UNK         0.0828 
    104 H104       29.3921  -47.3540  -54.5410 H         1 UNK         0.0828 
    105 H105       28.6514  -46.0337  -55.4329 H         1 UNK         0.0828 
    106 H106       31.4699  -48.1936  -55.4802 H         1 UNK         0.3005 
    107 H107       33.8939  -49.3077  -57.8288 H         1 UNK         0.1257 
    108 H108       35.0128  -47.3208  -57.3833 H         1 UNK         0.0775 
    109 H109       35.4126  -48.3119  -56.0299 H         1 UNK         0.0775 
    110 H110       34.8409  -44.4063  -56.2764 H         1 UNK         0.0840 
    111 H111       33.9987  -45.3365  -57.4843 H         1 UNK         0.0840 
    112 H112       32.8537  -49.4916  -55.0348 H         1 UNK         0.2987 
    113 H113       32.6802  -53.0276  -55.3730 H         1 UNK         0.0785 
    114 H114       35.0615  -52.8174  -54.6396 H         1 UNK         0.0798 
    115 H115       34.0062  -53.1186  -53.2697 H         1 UNK         0.0798 
    116 H116       34.6314  -51.4948  -53.5642 H         1 UNK         0.0798 
    117 H117       32.2128  -51.2212  -53.1825 H         1 UNK         0.3079 
    118 H118       29.2427  -49.8360  -54.1495 H         1 UNK         0.0794 
    119 H119       29.1490  -52.2650  -52.2829 H         1 UNK         0.0786 
    120 H120       28.1457  -52.0373  -53.7091 H         1 UNK         0.0786 
    121 H121       27.9703  -50.9518  -52.3429 H         1 UNK         0.0786 
    122 H122       30.1844  -50.1122  -51.5181 H         1 UNK         0.3032 
    123 H123       31.1568  -48.1644  -50.6203 H         1 UNK         0.1094 
    124 H124       32.7327  -50.1385  -50.5702 H         1 UNK         0.0794 
    125 H125       33.8925  -49.2498  -51.5516 H         1 UNK         0.0794 
    126 H126       33.5180  -48.7134  -49.9163 H         1 UNK         0.0794 
    127 H127       32.6078  -46.7942  -52.7021 H         1 UNK         0.3016 
@<TRIPOS>BOND
     1    1    2 1    
     2    1   67 1    
     3    1   68 1    
     4    1   69 1    
     5    2    3 2    
     6    2    4 am   BACKBONE|DICT|INTERRES
     7    4    5 1    
     8    4   70 1    
     9    5    6 1    
    10    5   65 1    
    11    5   71 1    
    12    6    7 1    
    13    6   72 1    
    14    6   73 1    
    15    7    8 1    
    16    8    9 1    
    17    8   74 1    
    18    8   75 1    
    19    9   10 ar   
    20    9   14 ar   
    21   10   11 ar   
    22   10   76 1    
    23   11   12 ar   
    24   11   48 1    
    25   12   13 ar   
    26   12   77 1    
    27   13   14 ar   
    28   13   15 1    
    29   14   78 1    
    30   15   16 1    
    31   15   79 1    
    32   15   80 1    
    33   16   17 1    
    34   17   18 1    
    35   17   81 1    
    36   17   82 1    
    37   18   19 1    
    38   18   22 1    
    39   18   83 1    
    40   19   20 am   BACKBONE|DICT|INTERRES
    41   19   21 2    
    42   20   84 1    
    43   20   85 1    
    44   22   23 am   BACKBONE|DICT|INTERRES
    45   22   86 1    
    46   23   24 2    
    47   23   25 1    
    48   25   26 1    
    49   25   27 1    
    50   25   87 1    
    51   26   88 1    
    52   26   89 1    
    53   26   90 1    
    54   27   28 am   BACKBONE|DICT|INTERRES
    55   27   91 1    
    56   28   29 2    
    57   28   30 1    
    58   30   31 1    
    59   30   32 1    
    60   30   92 1    
    61   31   93 1    
    62   31   94 1    
    63   31   95 1    
    64   32   33 am   BACKBONE|DICT|INTERRES
    65   32   96 1    
    66   33   34 2    
    67   33   35 1    
    68   35   36 1    
    69   35   37 1    
    70   35   97 1    
    71   36   98 1    
    72   36   99 1    
    73   36  100 1    
    74   37   38 am   BACKBONE|DICT|INTERRES
    75   37  101 1    
    76   38   39 2    
    77   38   40 1    
    78   40   41 1    
    79   40   42 1    
    80   40  102 1    
    81   41  103 1    
    82   41  104 1    
    83   41  105 1    
    84   42   43 am   BACKBONE|DICT|INTERRES
    85   42  106 1    
    86   43   44 2    
    87   43   45 1    
    88   45   46 1    
    89   45   49 1    
    90   45  107 1    
    91   46   47 1    
    92   46  108 1    
    93   46  109 1    
    94   47   48 1    
    95   48  110 1    
    96   48  111 1    
    97   49   50 am   BACKBONE|DICT|INTERRES
    98   49  112 1    
    99   50   51 2    
   100   50   52 1    
   101   52   53 1    
   102   52   54 1    
   103   52  113 1    
   104   53  114 1    
   105   53  115 1    
   106   53  116 1    
   107   54   55 am   BACKBONE|DICT|INTERRES
   108   54  117 1    
   109   55   56 2    
   110   55   57 1    
   111   57   58 1    
   112   57   59 1    
   113   57  118 1    
   114   58  119 1    
   115   58  120 1    
   116   58  121 1    
   117   59   60 am   BACKBONE|DICT|INTERRES
   118   59  122 1    
   119   60   61 2    
   120   60   62 1    
   121   62   63 1    
   122   62   64 1    
   123   62  123 1    
   124   63  124 1    
   125   63  125 1    
   126   63  126 1    
   127   64   65 am   BACKBONE|DICT|INTERRES
   128   64  127 1    
   129   65   66 2    
@<TRIPOS>SUBSTRUCTURE
     1 UNK         1 GROUP             0       ****    0 ROOT    
