@<TRIPOS>MOLECULE
3R134
127   129    1
SMALL
USER_CHARGES


@<TRIPOS>ATOM
      1 CA         37.4589  -49.9444  -55.6150 C.3       0 UNK        -0.1968 
      2 C          36.0685  -49.3478  -55.4522 C.2       0 UNK         0.4852 
      3 O          35.0893  -50.0908  -55.4080 O.2       0 UNK        -0.5359 
      4 N          35.9797  -48.0137  -55.3641 N.am      1 UNK        -0.4300 
      5 CA         34.7321  -47.2601  -55.1796 C.3       1 UNK         0.0863 
      6 C6         34.8822  -45.8250  -55.7491 C.3       11 UNK        -0.0953 
      7 S7         33.2833  -45.0472  -56.1531 S.3       11 UNK        -0.2369 
      8 C8         33.2249  -43.7100  -54.9219 C.3       11 UNK         0.0226 
      9 C9         31.7918  -43.3523  -54.5656 C.ar      11 UNK        -0.0699 
     10 C10        31.2293  -43.8318  -53.3803 C.ar      11 UNK        -0.0804 
     11 C11        29.9085  -43.5231  -53.0442 C.ar      11 UNK        -0.0871 
     12 C12        29.1593  -42.6982  -53.8913 C.ar      11 UNK        -0.1008 
     13 C13        29.7144  -42.2027  -55.0760 C.ar      11 UNK        -0.0735 
     14 C14        31.0301  -42.5399  -55.4106 C.ar      11 UNK        -0.0945 
     15 C15        28.9141  -41.2723  -55.9788 C.3       11 UNK         0.0169 
     16 S16        27.8625  -42.1758  -57.1618 S.3       11 UNK        -0.2669 
     17 C17        26.3592  -42.5055  -56.1762 C.3       11 UNK        -0.0850 
     18 CA         26.1868  -44.0107  -55.8210 C.3       10 UNK         0.0855 
     19 C          25.0798  -44.2631  -54.7535 C.2       10 UNK         0.5543 
     20 N          24.3066  -45.3405  -54.8348 N.am      10 UNK        -0.7343 
     21 O          24.9410  -43.4875  -53.8113 O.2       10 UNK        -0.5027 
     22 N          26.1114  -44.9049  -56.9878 N.am      10 UNK        -0.4495 
     23 C          25.1996  -44.8659  -57.9681 C.2       10 UNK         0.4903 
     24 O          24.3252  -44.0048  -58.0667 O.2       10 UNK        -0.4860 
     25 CA         25.2433  -45.9966  -59.0111 C.3       9 UNK         0.0227 
     26 CB         25.9713  -45.5384  -60.2851 C.3       9 UNK        -0.1964 
     27 N          25.8428  -47.2443  -58.5227 N.am      9 UNK        -0.4231 
     28 C          25.2703  -48.0437  -57.6044 C.2       9 UNK         0.5014 
     29 O          24.2283  -47.7445  -57.0178 O.2       9 UNK        -0.5270 
     30 CA         25.9255  -49.4002  -57.2783 C.3       8 UNK         0.0284 
     31 CB         24.9810  -50.5702  -57.6146 C.3       8 UNK        -0.1977 
     32 N          27.2065  -49.5918  -57.9549 N.am      8 UNK        -0.4342 
     33 C          28.2284  -50.3252  -57.5067 C.2       8 UNK         0.5039 
     34 O          28.1867  -51.0366  -56.5025 O.2       8 UNK        -0.5547 
     35 CA         29.5434  -50.1969  -58.2934 C.3       7 UNK         0.0281 
     36 CB         29.4136  -50.6772  -59.7538 C.3       7 UNK        -0.1963 
     37 N          30.0905  -48.8389  -58.1916 N.am      7 UNK        -0.4444 
     38 C          29.5877  -47.6957  -58.6835 C.2       7 UNK         0.5104 
     39 O          28.6207  -47.6346  -59.4491 O.2       7 UNK        -0.5100 
     40 CA         30.2106  -46.4088  -58.1088 C.3       6 UNK         0.0396 
     41 CB         29.5301  -45.1195  -58.5999 C.3       6 UNK        -0.1801 
     42 N          30.2542  -46.4412  -56.6422 N.am      6 UNK        -0.4747 
     43 C          29.2438  -46.7073  -55.7980 C.2       6 UNK         0.5012 
     44 O          28.0683  -46.8442  -56.1429 O.2       6 UNK        -0.5003 
     45 CA         29.6316  -46.9044  -54.3206 C.3       5 UNK         0.0782 
     46 C46        28.5640  -46.3182  -53.3614 C.3       11 UNK        -0.0868 
     47 S47        29.2865  -45.9204  -51.7358 S.3       11 UNK        -0.2515 
     48 C48        29.2856  -44.0924  -51.7730 C.3       11 UNK         0.0199 
     49 N          29.8798  -48.3116  -53.9938 N.am      5 UNK        -0.4607 
     50 C          30.7103  -49.1769  -54.5899 C.2       4 UNK         0.5031 
     51 O          31.3991  -48.9198  -55.5791 O.2       4 UNK        -0.5119 
     52 CA         30.8091  -50.5593  -53.9188 C.3       4 UNK         0.0263 
     53 CB         31.6498  -51.5593  -54.7323 C.3       4 UNK        -0.1967 
     54 N          31.3933  -50.4264  -52.5838 N.am      4 UNK        -0.4237 
     55 C          30.7428  -50.0472  -51.4776 C.2       3 UNK         0.4908 
     56 O          29.5252  -49.8664  -51.4386 O.2       3 UNK        -0.5102 
     57 CA         31.5862  -49.7750  -50.2172 C.3       3 UNK         0.0241 
     58 CB         32.0300  -51.0862  -49.5381 C.3       3 UNK        -0.1971 
     59 N          32.7162  -48.8584  -50.4456 N.am      3 UNK        -0.4139 
     60 C          33.8100  -49.0560  -51.1953 C.2       2 UNK         0.5016 
     61 O          34.0736  -50.1157  -51.7697 O.2       2 UNK        -0.5319 
     62 CA         34.7654  -47.8613  -51.3547 C.3       2 UNK         0.0286 
     63 CB         36.0501  -48.0780  -50.5390 C.3       2 UNK        -0.1963 
     64 N          35.1130  -47.6658  -52.7643 N.am      2 UNK        -0.4790 
     65 C          34.2464  -47.2658  -53.7082 C.2       1 UNK         0.5024 
     66 O          33.0979  -46.9091  -53.4444 O.2       1 UNK        -0.4888 
     67 H67        38.2330  -49.1778  -55.6439 H         1 UNK         0.0892 
     68 H68        37.6776  -50.6163  -54.7853 H         1 UNK         0.0892 
     69 H69        37.5147  -50.5169  -56.5405 H         1 UNK         0.0892 
     70 H70        36.8224  -47.4583  -55.4164 H         1 UNK         0.3107 
     71 H71        33.9577  -47.7690  -55.7588 H         1 UNK         0.0773 
     72 H72        35.4421  -45.8575  -56.6853 H         1 UNK         0.0680 
     73 H73        35.4680  -45.1916  -55.0805 H         1 UNK         0.0680 
     74 H74        33.7612  -44.0114  -54.0208 H         1 UNK         0.0650 
     75 H75        33.7455  -42.8352  -55.3137 H         1 UNK         0.0650 
     76 H76        31.8114  -44.4703  -52.7289 H         1 UNK         0.1397 
     77 H77        28.1414  -42.4425  -53.6309 H         1 UNK         0.1363 
     78 H78        31.4661  -42.1659  -56.3270 H         1 UNK         0.1355 
     79 H79        29.5973  -40.6395  -56.5474 H         1 UNK         0.0707 
     80 H80        28.3109  -40.5881  -55.3804 H         1 UNK         0.0707 
     81 H81        26.3955  -41.9007  -55.2694 H         1 UNK         0.1034 
     82 H82        25.4944  -42.1371  -56.7286 H         1 UNK         0.1034 
     83 H83        27.1078  -44.3038  -55.3249 H         1 UNK         0.0482 
     84 H84        23.6039  -45.4961  -54.1298 H         1 UNK         0.3460 
     85 H85        24.4059  -45.9943  -55.6002 H         1 UNK         0.3460 
     86 H86        26.7641  -45.6835  -56.9586 H         1 UNK         0.2989 
     87 H87        24.2091  -46.2164  -59.2850 H         1 UNK         0.0559 
     88 H88        25.9172  -46.2957  -61.0673 H         1 UNK         0.0848 
     89 H89        27.0233  -45.3259  -60.0998 H         1 UNK         0.0848 
     90 H90        25.5222  -44.6284  -60.6853 H         1 UNK         0.0848 
     91 H91        26.7545  -47.4676  -58.9055 H         1 UNK         0.3144 
     92 H92        26.1046  -49.3945  -56.2008 H         1 UNK         0.0727 
     93 H93        25.4013  -51.5245  -57.2970 H         1 UNK         0.0790 
     94 H94        24.7838  -50.6300  -58.6855 H         1 UNK         0.0790 
     95 H95        24.0204  -50.4591  -57.1098 H         1 UNK         0.0790 
     96 H96        27.3977  -49.0151  -58.7659 H         1 UNK         0.3215 
     97 H97        30.2700  -50.8462  -57.8032 H         1 UNK         0.0863 
     98 H98        30.3730  -50.6299  -60.2689 H         1 UNK         0.0808 
     99 H99        28.6987  -50.0905  -60.3302 H         1 UNK         0.0808 
    100 H100       29.0792  -51.7148  -59.7888 H         1 UNK         0.0808 
    101 H101       30.8019  -48.7406  -57.4706 H         1 UNK         0.3118 
    102 H102       31.2458  -46.3873  -58.4519 H         1 UNK         0.0546 
    103 H103       28.4961  -45.0587  -58.2681 H         1 UNK         0.0828 
    104 H104       29.5320  -45.0633  -59.6888 H         1 UNK         0.0828 
    105 H105       30.0484  -44.2358  -58.2275 H         1 UNK         0.0828 
    106 H106       31.1841  -46.3720  -56.2470 H         1 UNK         0.3005 
    107 H107       30.5720  -46.3733  -54.1663 H         1 UNK         0.1257 
    108 H108       28.1150  -45.4132  -53.7628 H         1 UNK         0.0775 
    109 H109       27.7345  -47.0148  -53.2257 H         1 UNK         0.0775 
    110 H110       28.2580  -43.7437  -51.6574 H         1 UNK         0.0840 
    111 H111       29.8347  -43.7196  -50.9074 H         1 UNK         0.0840 
    112 H112       29.4079  -48.6441  -53.1610 H         1 UNK         0.2987 
    113 H113       29.7972  -50.9623  -53.8359 H         1 UNK         0.0785 
    114 H114       31.6778  -52.5370  -54.2513 H         1 UNK         0.0798 
    115 H115       32.6779  -51.2161  -54.8541 H         1 UNK         0.0798 
    116 H116       31.2303  -51.7005  -55.7285 H         1 UNK         0.0798 
    117 H117       32.4078  -50.4885  -52.5189 H         1 UNK         0.3079 
    118 H118       30.9310  -49.2564  -49.5150 H         1 UNK         0.0794 
    119 H119       31.1658  -51.7005  -49.2819 H         1 UNK         0.0786 
    120 H120       32.5725  -50.8889  -48.6136 H         1 UNK         0.0786 
    121 H121       32.6724  -51.6882  -50.1811 H         1 UNK         0.0786 
    122 H122       32.5917  -47.9394  -50.0429 H         1 UNK         0.3032 
    123 H123       34.2732  -46.9543  -50.9959 H         1 UNK         0.1094 
    124 H124       36.5903  -48.9680  -50.8648 H         1 UNK         0.0794 
    125 H125       36.7240  -47.2252  -50.6242 H         1 UNK         0.0794 
    126 H126       35.8221  -48.2054  -49.4799 H         1 UNK         0.0794 
    127 H127       36.0245  -47.9841  -53.0570 H         1 UNK         0.3016 
@<TRIPOS>BOND
     1    1    2 1    
     2    1   67 1    
     3    1   68 1    
     4    1   69 1    
     5    2    3 2    
     6    2    4 am   BACKBONE|DICT|INTERRES
     7    4    5 1    
     8    4   70 1    
     9    5    6 1    
    10    5   65 1    
    11    5   71 1    
    12    6    7 1    
    13    6   72 1    
    14    6   73 1    
    15    7    8 1    
    16    8    9 1    
    17    8   74 1    
    18    8   75 1    
    19    9   10 ar   
    20    9   14 ar   
    21   10   11 ar   
    22   10   76 1    
    23   11   12 ar   
    24   11   48 1    
    25   12   13 ar   
    26   12   77 1    
    27   13   14 ar   
    28   13   15 1    
    29   14   78 1    
    30   15   16 1    
    31   15   79 1    
    32   15   80 1    
    33   16   17 1    
    34   17   18 1    
    35   17   81 1    
    36   17   82 1    
    37   18   19 1    
    38   18   22 1    
    39   18   83 1    
    40   19   20 am   BACKBONE|DICT|INTERRES
    41   19   21 2    
    42   20   84 1    
    43   20   85 1    
    44   22   23 am   BACKBONE|DICT|INTERRES
    45   22   86 1    
    46   23   24 2    
    47   23   25 1    
    48   25   26 1    
    49   25   27 1    
    50   25   87 1    
    51   26   88 1    
    52   26   89 1    
    53   26   90 1    
    54   27   28 am   BACKBONE|DICT|INTERRES
    55   27   91 1    
    56   28   29 2    
    57   28   30 1    
    58   30   31 1    
    59   30   32 1    
    60   30   92 1    
    61   31   93 1    
    62   31   94 1    
    63   31   95 1    
    64   32   33 am   BACKBONE|DICT|INTERRES
    65   32   96 1    
    66   33   34 2    
    67   33   35 1    
    68   35   36 1    
    69   35   37 1    
    70   35   97 1    
    71   36   98 1    
    72   36   99 1    
    73   36  100 1    
    74   37   38 am   BACKBONE|DICT|INTERRES
    75   37  101 1    
    76   38   39 2    
    77   38   40 1    
    78   40   41 1    
    79   40   42 1    
    80   40  102 1    
    81   41  103 1    
    82   41  104 1    
    83   41  105 1    
    84   42   43 am   BACKBONE|DICT|INTERRES
    85   42  106 1    
    86   43   44 2    
    87   43   45 1    
    88   45   46 1    
    89   45   49 1    
    90   45  107 1    
    91   46   47 1    
    92   46  108 1    
    93   46  109 1    
    94   47   48 1    
    95   48  110 1    
    96   48  111 1    
    97   49   50 am   BACKBONE|DICT|INTERRES
    98   49  112 1    
    99   50   51 2    
   100   50   52 1    
   101   52   53 1    
   102   52   54 1    
   103   52  113 1    
   104   53  114 1    
   105   53  115 1    
   106   53  116 1    
   107   54   55 am   BACKBONE|DICT|INTERRES
   108   54  117 1    
   109   55   56 2    
   110   55   57 1    
   111   57   58 1    
   112   57   59 1    
   113   57  118 1    
   114   58  119 1    
   115   58  120 1    
   116   58  121 1    
   117   59   60 am   BACKBONE|DICT|INTERRES
   118   59  122 1    
   119   60   61 2    
   120   60   62 1    
   121   62   63 1    
   122   62   64 1    
   123   62  123 1    
   124   63  124 1    
   125   63  125 1    
   126   63  126 1    
   127   64   65 am   BACKBONE|DICT|INTERRES
   128   64  127 1    
   129   65   66 2    
@<TRIPOS>SUBSTRUCTURE
     1 UNK         1 GROUP             0       ****    0 ROOT    
