@<TRIPOS>MOLECULE
3R134
127   129    1
SMALL
USER_CHARGES


@<TRIPOS>ATOM
      1 CA         34.1877  -46.5818  -50.3300 C.3       0 UNK        -0.1968 
      2 C          35.3287  -46.5303  -51.3348 C.2       0 UNK         0.4852 
      3 O          36.4687  -46.8475  -50.9908 O.2       0 UNK        -0.5359 
      4 N          35.0314  -46.1507  -52.5830 N.am      1 UNK        -0.4300 
      5 CA         35.9593  -46.0509  -53.7178 C.3       1 UNK         0.0863 
      6 C6         35.4622  -45.0218  -54.7729 C.3       11 UNK        -0.0953 
      7 S7         33.6813  -45.1593  -55.1759 S.3       11 UNK        -0.2369 
      8 C8         33.0695  -43.5860  -54.4947 C.3       11 UNK         0.0226 
      9 C9         31.5505  -43.5458  -54.4338 C.ar      11 UNK        -0.0699 
     10 C10        30.8945  -43.5214  -53.1987 C.ar      11 UNK        -0.0804 
     11 C11        29.4995  -43.4543  -53.1369 C.ar      11 UNK        -0.0871 
     12 C12        28.7596  -43.4361  -54.3229 C.ar      11 UNK        -0.1008 
     13 C13        29.4040  -43.4599  -55.5636 C.ar      11 UNK        -0.0735 
     14 C14        30.8001  -43.5046  -55.6126 C.ar      11 UNK        -0.0945 
     15 C15        28.5890  -43.4434  -56.8471 C.3       11 UNK         0.0169 
     16 S16        27.7165  -41.8599  -57.0468 S.3       11 UNK        -0.2669 
     17 C17        26.9613  -42.0381  -58.6976 C.3       11 UNK        -0.0850 
     18 CA         25.5451  -42.6863  -58.6363 C.3       10 UNK         0.0855 
     19 C          24.6372  -42.3103  -59.8512 C.2       10 UNK         0.5543 
     20 N          23.6956  -43.1553  -60.2540 N.am      10 UNK        -0.7343 
     21 O          24.7564  -41.2253  -60.4157 O.2       10 UNK        -0.5027 
     22 N          25.6029  -44.1303  -58.3301 N.am      10 UNK        -0.4495 
     23 C          26.0912  -45.0826  -59.1380 C.2       10 UNK         0.4903 
     24 O          26.5533  -44.8623  -60.2585 O.2       10 UNK        -0.4860 
     25 CA         26.0185  -46.5227  -58.6019 C.3       9 UNK         0.0227 
     26 CB         25.5525  -47.5187  -59.6830 C.3       9 UNK        -0.1964 
     27 N          27.2684  -46.9748  -57.9815 N.am      9 UNK        -0.4231 
     28 C          28.4787  -47.1382  -58.5428 C.2       9 UNK         0.5014 
     29 O          28.7698  -46.8303  -59.6984 O.2       9 UNK        -0.5270 
     30 CA         29.5452  -47.8310  -57.6736 C.3       8 UNK         0.0284 
     31 CB         30.2132  -46.8374  -56.7105 C.3       8 UNK        -0.1977 
     32 N          29.0023  -48.9604  -56.9154 N.am      8 UNK        -0.4342 
     33 C          28.4929  -50.0797  -57.4516 C.2       8 UNK         0.5039 
     34 O          28.5114  -50.3390  -58.6554 O.2       8 UNK        -0.5547 
     35 CA         27.8237  -51.0661  -56.4822 C.3       7 UNK         0.0281 
     36 CB         28.8618  -51.9861  -55.8184 C.3       7 UNK        -0.1963 
     37 N          27.0531  -50.3621  -55.4553 N.am      7 UNK        -0.4444 
     38 C          25.8175  -49.8757  -55.6392 C.2       7 UNK         0.5104 
     39 O          25.1639  -50.0364  -56.6698 O.2       7 UNK        -0.5100 
     40 CA         25.2001  -49.0708  -54.4804 C.3       6 UNK         0.0396 
     41 CB         24.3449  -49.9861  -53.5900 C.3       6 UNK        -0.1801 
     42 N          26.1942  -48.3829  -53.6519 N.am      6 UNK        -0.4747 
     43 C          26.9178  -47.3261  -54.0504 C.2       6 UNK         0.5012 
     44 O          26.8094  -46.8032  -55.1597 O.2       6 UNK        -0.5003 
     45 CA         27.9791  -46.8025  -53.0608 C.3       5 UNK         0.0782 
     46 C46        27.3512  -45.7758  -52.0893 C.3       11 UNK        -0.0868 
     47 S47        28.6014  -45.0006  -51.0104 S.3       11 UNK        -0.2515 
     48 C48        28.7974  -43.3678  -51.7889 C.3       11 UNK         0.0199 
     49 N          28.6804  -47.8787  -52.3451 N.am      5 UNK        -0.4607 
     50 C          29.3722  -48.8621  -52.9303 C.2       4 UNK         0.5031 
     51 O          29.4256  -49.0223  -54.1509 O.2       4 UNK        -0.5119 
     52 CA         30.0598  -49.8744  -52.0016 C.3       4 UNK         0.0263 
     53 CB         29.0606  -50.9616  -51.5726 C.3       4 UNK        -0.1967 
     54 N          31.1930  -50.5103  -52.6755 N.am      4 UNK        -0.4237 
     55 C          32.3523  -49.8965  -52.9384 C.2       3 UNK         0.4908 
     56 O          32.6560  -48.7757  -52.5165 O.2       3 UNK        -0.5102 
     57 CA         33.3257  -50.6553  -53.8465 C.3       3 UNK         0.0241 
     58 CB         32.9063  -50.5185  -55.3242 C.3       3 UNK        -0.1971 
     59 N          34.6497  -50.0834  -53.6469 N.am      3 UNK        -0.4139 
     60 C          35.8254  -50.6065  -54.0086 C.2       2 UNK         0.5016 
     61 O          35.9441  -51.7066  -54.5513 O.2       2 UNK        -0.5319 
     62 CA         37.0818  -49.7646  -53.6938 C.3       2 UNK         0.0286 
     63 CB         38.1888  -49.9338  -54.7565 C.3       2 UNK        -0.1963 
     64 N          36.7938  -48.3412  -53.4510 N.am      2 UNK        -0.4790 
     65 C          36.2820  -47.4438  -54.3088 C.2       1 UNK         0.5024 
     66 O          36.0395  -47.6933  -55.4904 O.2       1 UNK        -0.4888 
     67 H67        34.3876  -45.9079  -49.4975 H         1 UNK         0.0892 
     68 H68        33.2367  -46.2964  -50.7801 H         1 UNK         0.0892 
     69 H69        34.0821  -47.5924  -49.9364 H         1 UNK         0.0892 
     70 H70        34.0676  -45.9602  -52.8218 H         1 UNK         0.3107 
     71 H71        36.9102  -45.6705  -53.3381 H         1 UNK         0.0773 
     72 H72        36.0378  -45.0905  -55.6978 H         1 UNK         0.0680 
     73 H73        35.6599  -44.0162  -54.3991 H         1 UNK         0.0680 
     74 H74        33.4307  -42.7624  -55.1123 H         1 UNK         0.0650 
     75 H75        33.4917  -43.4365  -53.4996 H         1 UNK         0.0650 
     76 H76        31.4681  -43.5401  -52.2819 H         1 UNK         0.1397 
     77 H77        27.6799  -43.3866  -54.2868 H         1 UNK         0.1363 
     78 H78        31.3078  -43.5181  -56.5674 H         1 UNK         0.1355 
     79 H79        27.8691  -44.2607  -56.8115 H         1 UNK         0.0707 
     80 H80        29.2247  -43.6226  -57.7157 H         1 UNK         0.0707 
     81 H81        26.9114  -41.0285  -59.1087 H         1 UNK         0.1034 
     82 H82        27.6271  -42.5889  -59.3633 H         1 UNK         0.1034 
     83 H83        25.0238  -42.2370  -57.7902 H         1 UNK         0.0482 
     84 H84        23.5752  -44.0429  -59.7936 H         1 UNK         0.3460 
     85 H85        23.1043  -42.9030  -61.0302 H         1 UNK         0.3460 
     86 H86        25.2238  -44.3995  -57.4334 H         1 UNK         0.2989 
     87 H87        25.2707  -46.5447  -57.8073 H         1 UNK         0.0559 
     88 H88        26.2577  -47.5815  -60.5124 H         1 UNK         0.0848 
     89 H89        24.5892  -47.2208  -60.0985 H         1 UNK         0.0848 
     90 H90        25.4335  -48.5209  -59.2701 H         1 UNK         0.0848 
     91 H91        27.1896  -47.1756  -56.9873 H         1 UNK         0.3144 
     92 H92        30.3149  -48.2246  -58.3408 H         1 UNK         0.0727 
     93 H93        29.4971  -46.4100  -56.0089 H         1 UNK         0.0790 
     94 H94        30.6685  -46.0120  -57.2586 H         1 UNK         0.0790 
     95 H95        31.0033  -47.3140  -56.1293 H         1 UNK         0.0790 
     96 H96        29.0291  -48.8842  -55.8993 H         1 UNK         0.3215 
     97 H97        27.1449  -51.6942  -57.0638 H         1 UNK         0.0863 
     98 H98        28.3811  -52.7323  -55.1858 H         1 UNK         0.0808 
     99 H99        29.5662  -51.4293  -55.2022 H         1 UNK         0.0808 
    100 H100       29.4413  -52.5237  -56.5702 H         1 UNK         0.0808 
    101 H101       27.5425  -50.1251  -54.6035 H         1 UNK         0.3118 
    102 H102       24.5445  -48.3151  -54.9189 H         1 UNK         0.0546 
    103 H103       24.9454  -50.7575  -53.1062 H         1 UNK         0.0828 
    104 H104       23.5764  -50.4922  -54.1761 H         1 UNK         0.0828 
    105 H105       23.8339  -49.4191  -52.8117 H         1 UNK         0.0828 
    106 H106       26.3526  -48.7506  -52.7245 H         1 UNK         0.3005 
    107 H107       28.7308  -46.2855  -53.6614 H         1 UNK         0.1257 
    108 H108       26.6083  -46.2580  -51.4511 H         1 UNK         0.0775 
    109 H109       26.8148  -44.9982  -52.6360 H         1 UNK         0.0775 
    110 H110       27.8223  -42.8886  -51.8901 H         1 UNK         0.0840 
    111 H111       29.3757  -42.7290  -51.1196 H         1 UNK         0.0840 
    112 H112       28.6801  -47.8085  -51.3376 H         1 UNK         0.2987 
    113 H113       30.4250  -49.3513  -51.1149 H         1 UNK         0.0785 
    114 H114       28.2151  -50.5298  -51.0356 H         1 UNK         0.0798 
    115 H115       29.5272  -51.6863  -50.9050 H         1 UNK         0.0798 
    116 H116       28.6596  -51.5056  -52.4292 H         1 UNK         0.0798 
    117 H117       31.0212  -51.4169  -53.0839 H         1 UNK         0.3079 
    118 H118       33.3423  -51.7073  -53.5543 H         1 UNK         0.0794 
    119 H119       33.5850  -51.0577  -55.9849 H         1 UNK         0.0786 
    120 H120       32.8926  -49.4741  -55.6404 H         1 UNK         0.0786 
    121 H121       31.9076  -50.9212  -55.4922 H         1 UNK         0.0786 
    122 H122       34.6330  -49.1867  -53.1766 H         1 UNK         0.3032 
    123 H123       37.4694  -50.1582  -52.7526 H         1 UNK         0.1094 
    124 H124       39.0678  -49.3370  -54.5132 H         1 UNK         0.0794 
    125 H125       37.8473  -49.6412  -55.7497 H         1 UNK         0.0794 
    126 H126       38.5135  -50.9731  -54.8208 H         1 UNK         0.0794 
    127 H127       36.9223  -48.0206  -52.4933 H         1 UNK         0.3016 
@<TRIPOS>BOND
     1    1    2 1    
     2    1   67 1    
     3    1   68 1    
     4    1   69 1    
     5    2    3 2    
     6    2    4 am   BACKBONE|DICT|INTERRES
     7    4    5 1    
     8    4   70 1    
     9    5    6 1    
    10    5   65 1    
    11    5   71 1    
    12    6    7 1    
    13    6   72 1    
    14    6   73 1    
    15    7    8 1    
    16    8    9 1    
    17    8   74 1    
    18    8   75 1    
    19    9   10 ar   
    20    9   14 ar   
    21   10   11 ar   
    22   10   76 1    
    23   11   12 ar   
    24   11   48 1    
    25   12   13 ar   
    26   12   77 1    
    27   13   14 ar   
    28   13   15 1    
    29   14   78 1    
    30   15   16 1    
    31   15   79 1    
    32   15   80 1    
    33   16   17 1    
    34   17   18 1    
    35   17   81 1    
    36   17   82 1    
    37   18   19 1    
    38   18   22 1    
    39   18   83 1    
    40   19   20 am   BACKBONE|DICT|INTERRES
    41   19   21 2    
    42   20   84 1    
    43   20   85 1    
    44   22   23 am   BACKBONE|DICT|INTERRES
    45   22   86 1    
    46   23   24 2    
    47   23   25 1    
    48   25   26 1    
    49   25   27 1    
    50   25   87 1    
    51   26   88 1    
    52   26   89 1    
    53   26   90 1    
    54   27   28 am   BACKBONE|DICT|INTERRES
    55   27   91 1    
    56   28   29 2    
    57   28   30 1    
    58   30   31 1    
    59   30   32 1    
    60   30   92 1    
    61   31   93 1    
    62   31   94 1    
    63   31   95 1    
    64   32   33 am   BACKBONE|DICT|INTERRES
    65   32   96 1    
    66   33   34 2    
    67   33   35 1    
    68   35   36 1    
    69   35   37 1    
    70   35   97 1    
    71   36   98 1    
    72   36   99 1    
    73   36  100 1    
    74   37   38 am   BACKBONE|DICT|INTERRES
    75   37  101 1    
    76   38   39 2    
    77   38   40 1    
    78   40   41 1    
    79   40   42 1    
    80   40  102 1    
    81   41  103 1    
    82   41  104 1    
    83   41  105 1    
    84   42   43 am   BACKBONE|DICT|INTERRES
    85   42  106 1    
    86   43   44 2    
    87   43   45 1    
    88   45   46 1    
    89   45   49 1    
    90   45  107 1    
    91   46   47 1    
    92   46  108 1    
    93   46  109 1    
    94   47   48 1    
    95   48  110 1    
    96   48  111 1    
    97   49   50 am   BACKBONE|DICT|INTERRES
    98   49  112 1    
    99   50   51 2    
   100   50   52 1    
   101   52   53 1    
   102   52   54 1    
   103   52  113 1    
   104   53  114 1    
   105   53  115 1    
   106   53  116 1    
   107   54   55 am   BACKBONE|DICT|INTERRES
   108   54  117 1    
   109   55   56 2    
   110   55   57 1    
   111   57   58 1    
   112   57   59 1    
   113   57  118 1    
   114   58  119 1    
   115   58  120 1    
   116   58  121 1    
   117   59   60 am   BACKBONE|DICT|INTERRES
   118   59  122 1    
   119   60   61 2    
   120   60   62 1    
   121   62   63 1    
   122   62   64 1    
   123   62  123 1    
   124   63  124 1    
   125   63  125 1    
   126   63  126 1    
   127   64   65 am   BACKBONE|DICT|INTERRES
   128   64  127 1    
   129   65   66 2    
@<TRIPOS>SUBSTRUCTURE
     1 UNK         1 GROUP             0       ****    0 ROOT    
