@<TRIPOS>MOLECULE
3R134
127   129    1
SMALL
USER_CHARGES


@<TRIPOS>ATOM
      1 CA         37.0859  -45.3571  -53.3398 C.3       0 UNK        -0.1968 
      2 C          35.7040  -45.8936  -53.0008 C.2       0 UNK         0.4852 
      3 O          35.2504  -46.8499  -53.6250 O.2       0 UNK        -0.5359 
      4 N          35.0368  -45.3038  -51.9996 N.am      1 UNK        -0.4300 
      5 CA         33.6669  -45.6305  -51.5705 C.3       1 UNK         0.0863 
      6 C6         33.1196  -44.5441  -50.6052 C.3       11 UNK        -0.0953 
      7 S7         31.3954  -44.0756  -50.9665 S.3       11 UNK        -0.2369 
      8 C8         31.6206  -42.7472  -52.1940 C.3       11 UNK         0.0226 
      9 C9         31.2736  -43.2184  -53.5986 C.ar      11 UNK        -0.0699 
     10 C10        32.2465  -43.7894  -54.4259 C.ar      11 UNK        -0.0804 
     11 C11        31.9212  -44.2143  -55.7191 C.ar      11 UNK        -0.0871 
     12 C12        30.6149  -44.0450  -56.1882 C.ar      11 UNK        -0.1008 
     13 C13        29.6348  -43.4775  -55.3689 C.ar      11 UNK        -0.0735 
     14 C14        29.9696  -43.0669  -54.0765 C.ar      11 UNK        -0.0945 
     15 C15        28.2062  -43.3367  -55.8652 C.3       11 UNK         0.0169 
     16 S16        28.0054  -41.8463  -56.8927 S.3       11 UNK        -0.2669 
     17 C17        26.1933  -41.6855  -57.1248 C.3       11 UNK        -0.0850 
     18 CA         25.3672  -43.0000  -57.1054 C.3       10 UNK         0.0855 
     19 C          23.8506  -42.7013  -57.2543 C.2       10 UNK         0.5543 
     20 N          23.1607  -42.4352  -56.1538 N.am      10 UNK        -0.7343 
     21 O          23.3056  -42.6660  -58.3563 O.2       10 UNK        -0.5027 
     22 N          25.8443  -43.9441  -58.1239 N.am      10 UNK        -0.4495 
     23 C          25.6177  -45.2616  -58.1030 C.2       10 UNK         0.4903 
     24 O          25.0042  -45.8313  -57.1980 O.2       10 UNK        -0.4860 
     25 CA         26.1587  -46.0763  -59.2906 C.3       9 UNK         0.0227 
     26 CB         27.4270  -45.4701  -59.9290 C.3       9 UNK        -0.1964 
     27 N          26.4549  -47.4352  -58.8415 N.am      9 UNK        -0.4231 
     28 C          25.9587  -48.5569  -59.3756 C.2       9 UNK         0.5014 
     29 O          25.2137  -48.5801  -60.3571 O.2       9 UNK        -0.5270 
     30 CA         26.3678  -49.8902  -58.7263 C.3       8 UNK         0.0284 
     31 CB         27.5969  -50.4781  -59.4391 C.3       8 UNK        -0.1977 
     32 N          26.6439  -49.7963  -57.2907 N.am      8 UNK        -0.4342 
     33 C          25.7111  -49.6460  -56.3395 C.2       8 UNK         0.5039 
     34 O          24.5080  -49.5277  -56.5741 O.2       8 UNK        -0.5547 
     35 CA         26.1921  -49.6573  -54.8800 C.3       7 UNK         0.0281 
     36 CB         26.4269  -51.1007  -54.4033 C.3       7 UNK        -0.1963 
     37 N          27.4268  -48.8892  -54.7179 N.am      7 UNK        -0.4444 
     38 C          27.5027  -47.6635  -54.1809 C.2       7 UNK         0.5104 
     39 O          26.5423  -47.0695  -53.6898 O.2       7 UNK        -0.5100 
     40 CA         28.8799  -46.9708  -54.1862 C.3       6 UNK         0.0396 
     41 CB         29.5442  -47.0535  -52.8044 C.3       6 UNK        -0.1801 
     42 N          29.8081  -47.4938  -55.1901 N.am      6 UNK        -0.4747 
     43 C          29.6405  -47.3837  -56.5157 C.2       6 UNK         0.5012 
     44 O          28.6772  -46.8250  -57.0383 O.2       6 UNK        -0.5003 
     45 CA         30.6811  -48.0811  -57.4156 C.3       5 UNK         0.0782 
     46 C46        31.8055  -47.1110  -57.8588 C.3       11 UNK        -0.0868 
     47 S47        32.9831  -46.6553  -56.5340 S.3       11 UNK        -0.2515 
     48 C48        32.9887  -44.8337  -56.6112 C.3       11 UNK         0.0199 
     49 N          31.2079  -49.3291  -56.8460 N.am      5 UNK        -0.4607 
     50 C          30.4702  -50.3727  -56.4394 C.2       4 UNK         0.5031 
     51 O          29.2429  -50.4061  -56.5266 O.2       4 UNK        -0.5119 
     52 CA         31.1937  -51.5727  -55.8032 C.3       4 UNK         0.0263 
     53 CB         31.2344  -52.7487  -56.7919 C.3       4 UNK        -0.1967 
     54 N          32.5521  -51.3023  -55.3187 N.am      4 UNK        -0.4237 
     55 C          32.8796  -50.4233  -54.3612 C.2       3 UNK         0.4908 
     56 O          32.0685  -49.6717  -53.8139 O.2       3 UNK        -0.5102 
     57 CA         34.3731  -50.3703  -53.9968 C.3       3 UNK         0.0241 
     58 CB         35.1928  -49.7399  -55.1362 C.3       3 UNK        -0.1971 
     59 N          34.6035  -49.6152  -52.7642 N.am      3 UNK        -0.4139 
     60 C          34.4158  -50.1062  -51.5291 C.2       2 UNK         0.5016 
     61 O          34.0954  -51.2750  -51.3046 O.2       2 UNK        -0.5319 
     62 CA         34.6403  -49.1597  -50.3319 C.3       2 UNK         0.0286 
     63 CB         35.9842  -49.4645  -49.6494 C.3       2 UNK        -0.1963 
     64 N          34.6065  -47.7427  -50.6981 N.am      2 UNK        -0.4790 
     65 C          33.4933  -47.0592  -51.0001 C.2       1 UNK         0.5024 
     66 O          32.3620  -47.5219  -50.8564 O.2       1 UNK        -0.4888 
     67 H67        37.3721  -44.5269  -52.6946 H         1 UNK         0.0892 
     68 H68        37.8308  -46.1448  -53.2315 H         1 UNK         0.0892 
     69 H69        37.1070  -45.0082  -54.3718 H         1 UNK         0.0892 
     70 H70        35.4773  -44.5423  -51.5028 H         1 UNK         0.3107 
     71 H71        33.0662  -45.6246  -52.4814 H         1 UNK         0.0773 
     72 H72        33.1766  -44.8679  -49.5639 H         1 UNK         0.0680 
     73 H73        33.7253  -43.6377  -50.6433 H         1 UNK         0.0680 
     74 H74        32.6394  -42.3589  -52.1704 H         1 UNK         0.0650 
     75 H75        30.9781  -41.9101  -51.9170 H         1 UNK         0.0650 
     76 H76        33.2586  -43.9030  -54.0635 H         1 UNK         0.1397 
     77 H77        30.3520  -44.3640  -57.1870 H         1 UNK         0.1363 
     78 H78        29.2130  -42.6302  -53.4390 H         1 UNK         0.1355 
     79 H79        27.5229  -43.2908  -55.0160 H         1 UNK         0.0707 
     80 H80        27.9389  -44.2263  -56.4354 H         1 UNK         0.0707 
     81 H81        25.8325  -41.0136  -56.3435 H         1 UNK         0.1034 
     82 H82        26.0283  -41.1541  -58.0643 H         1 UNK         0.1034 
     83 H83        25.4972  -43.4707  -56.1297 H         1 UNK         0.0482 
     84 H84        23.5972  -42.4532  -55.2451 H         1 UNK         0.3460 
     85 H85        22.1780  -42.2232  -56.2315 H         1 UNK         0.3460 
     86 H86        26.3333  -43.5415  -58.9088 H         1 UNK         0.2989 
     87 H87        25.3681  -46.0883  -60.0432 H         1 UNK         0.0559 
     88 H88        28.2081  -45.2898  -59.1893 H         1 UNK         0.0848 
     89 H89        27.2128  -44.5226  -60.4240 H         1 UNK         0.0848 
     90 H90        27.8398  -46.1339  -60.6889 H         1 UNK         0.0848 
     91 H91        27.0422  -47.4929  -58.0150 H         1 UNK         0.3144 
     92 H92        25.5368  -50.5860  -58.8611 H         1 UNK         0.0727 
     93 H93        27.8594  -51.4567  -59.0362 H         1 UNK         0.0790 
     94 H94        28.4687  -49.8314  -59.3404 H         1 UNK         0.0790 
     95 H95        27.4054  -50.6073  -60.5053 H         1 UNK         0.0790 
     96 H96        27.6099  -49.9566  -57.0067 H         1 UNK         0.3215 
     97 H97        25.3964  -49.2278  -54.2672 H         1 UNK         0.0863 
     98 H98        26.7094  -51.1275  -53.3508 H         1 UNK         0.0808 
     99 H99        27.2142  -51.5960  -54.9733 H         1 UNK         0.0808 
    100 H100       25.5208  -51.6986  -54.5106 H         1 UNK         0.0808 
    101 H101       28.2654  -49.2881  -55.1242 H         1 UNK         0.3118 
    102 H102       28.7045  -45.9187  -54.4115 H         1 UNK         0.0546 
    103 H103       28.8918  -46.6506  -52.0288 H         1 UNK         0.0828 
    104 H104       30.4684  -46.4755  -52.7786 H         1 UNK         0.0828 
    105 H105       29.7863  -48.0814  -52.5312 H         1 UNK         0.0828 
    106 H106       30.6240  -47.9870  -54.8477 H         1 UNK         0.3005 
    107 H107       30.1381  -48.3693  -58.3179 H         1 UNK         0.1257 
    108 H108       31.3750  -46.2134  -58.3055 H         1 UNK         0.0775 
    109 H109       32.3842  -47.5763  -58.6581 H         1 UNK         0.0775 
    110 H110       33.9744  -44.4841  -56.3001 H         1 UNK         0.0840 
    111 H111       32.8678  -44.4971  -57.6418 H         1 UNK         0.0840 
    112 H112       32.2070  -49.3637  -56.7082 H         1 UNK         0.2987 
    113 H113       30.5970  -51.8746  -54.9399 H         1 UNK         0.0785 
    114 H114       30.2328  -52.9956  -57.1480 H         1 UNK         0.0798 
    115 H115       31.6386  -53.6474  -56.3257 H         1 UNK         0.0798 
    116 H116       31.8431  -52.5192  -57.6675 H         1 UNK         0.0798 
    117 H117       33.2870  -51.8646  -55.7238 H         1 UNK         0.3079 
    118 H118       34.7242  -51.3937  -53.8471 H         1 UNK         0.0794 
    119 H119       34.8283  -48.7450  -55.3919 H         1 UNK         0.0786 
    120 H120       35.1465  -50.3445  -56.0425 H         1 UNK         0.0786 
    121 H121       36.2446  -49.6480  -54.8649 H         1 UNK         0.0786 
    122 H122       34.8139  -48.6278  -52.8817 H         1 UNK         0.3032 
    123 H123       33.8391  -49.3519  -49.6143 H         1 UNK         0.1094 
    124 H124       36.8269  -49.2888  -50.3193 H         1 UNK         0.0794 
    125 H125       36.1266  -48.8506  -48.7598 H         1 UNK         0.0794 
    126 H126       36.0328  -50.5072  -49.3319 H         1 UNK         0.0794 
    127 H127       35.4957  -47.2863  -50.8409 H         1 UNK         0.3016 
@<TRIPOS>BOND
     1    1    2 1    
     2    1   67 1    
     3    1   68 1    
     4    1   69 1    
     5    2    3 2    
     6    2    4 am   BACKBONE|DICT|INTERRES
     7    4    5 1    
     8    4   70 1    
     9    5    6 1    
    10    5   65 1    
    11    5   71 1    
    12    6    7 1    
    13    6   72 1    
    14    6   73 1    
    15    7    8 1    
    16    8    9 1    
    17    8   74 1    
    18    8   75 1    
    19    9   10 ar   
    20    9   14 ar   
    21   10   11 ar   
    22   10   76 1    
    23   11   12 ar   
    24   11   48 1    
    25   12   13 ar   
    26   12   77 1    
    27   13   14 ar   
    28   13   15 1    
    29   14   78 1    
    30   15   16 1    
    31   15   79 1    
    32   15   80 1    
    33   16   17 1    
    34   17   18 1    
    35   17   81 1    
    36   17   82 1    
    37   18   19 1    
    38   18   22 1    
    39   18   83 1    
    40   19   20 am   BACKBONE|DICT|INTERRES
    41   19   21 2    
    42   20   84 1    
    43   20   85 1    
    44   22   23 am   BACKBONE|DICT|INTERRES
    45   22   86 1    
    46   23   24 2    
    47   23   25 1    
    48   25   26 1    
    49   25   27 1    
    50   25   87 1    
    51   26   88 1    
    52   26   89 1    
    53   26   90 1    
    54   27   28 am   BACKBONE|DICT|INTERRES
    55   27   91 1    
    56   28   29 2    
    57   28   30 1    
    58   30   31 1    
    59   30   32 1    
    60   30   92 1    
    61   31   93 1    
    62   31   94 1    
    63   31   95 1    
    64   32   33 am   BACKBONE|DICT|INTERRES
    65   32   96 1    
    66   33   34 2    
    67   33   35 1    
    68   35   36 1    
    69   35   37 1    
    70   35   97 1    
    71   36   98 1    
    72   36   99 1    
    73   36  100 1    
    74   37   38 am   BACKBONE|DICT|INTERRES
    75   37  101 1    
    76   38   39 2    
    77   38   40 1    
    78   40   41 1    
    79   40   42 1    
    80   40  102 1    
    81   41  103 1    
    82   41  104 1    
    83   41  105 1    
    84   42   43 am   BACKBONE|DICT|INTERRES
    85   42  106 1    
    86   43   44 2    
    87   43   45 1    
    88   45   46 1    
    89   45   49 1    
    90   45  107 1    
    91   46   47 1    
    92   46  108 1    
    93   46  109 1    
    94   47   48 1    
    95   48  110 1    
    96   48  111 1    
    97   49   50 am   BACKBONE|DICT|INTERRES
    98   49  112 1    
    99   50   51 2    
   100   50   52 1    
   101   52   53 1    
   102   52   54 1    
   103   52  113 1    
   104   53  114 1    
   105   53  115 1    
   106   53  116 1    
   107   54   55 am   BACKBONE|DICT|INTERRES
   108   54  117 1    
   109   55   56 2    
   110   55   57 1    
   111   57   58 1    
   112   57   59 1    
   113   57  118 1    
   114   58  119 1    
   115   58  120 1    
   116   58  121 1    
   117   59   60 am   BACKBONE|DICT|INTERRES
   118   59  122 1    
   119   60   61 2    
   120   60   62 1    
   121   62   63 1    
   122   62   64 1    
   123   62  123 1    
   124   63  124 1    
   125   63  125 1    
   126   63  126 1    
   127   64   65 am   BACKBONE|DICT|INTERRES
   128   64  127 1    
   129   65   66 2    
@<TRIPOS>SUBSTRUCTURE
     1 UNK         1 GROUP             0       ****    0 ROOT    
