@<TRIPOS>MOLECULE
3R134
127   129    1
SMALL
USER_CHARGES


@<TRIPOS>ATOM
      1 CA         36.7680  -44.6447  -50.9369 C.3       0 UNK        -0.1968 
      2 C          36.1907  -45.4491  -52.0920 C.2       0 UNK         0.4852 
      3 O          36.7245  -46.5063  -52.4296 O.2       0 UNK        -0.5359 
      4 N          35.0954  -44.9645  -52.6926 N.am      1 UNK        -0.4300 
      5 CA         34.4250  -45.5780  -53.8496 C.3       1 UNK         0.0863 
      6 C6         33.6077  -44.5650  -54.7025 C.3       11 UNK        -0.0953 
      7 S7         34.3050  -42.8836  -54.8531 S.3       11 UNK        -0.2369 
      8 C8         33.3601  -41.9687  -53.5847 C.3       11 UNK         0.0226 
      9 C9         31.8601  -41.9663  -53.8541 C.ar      11 UNK        -0.0699 
     10 C10        31.0098  -42.8162  -53.1370 C.ar      11 UNK        -0.0804 
     11 C11        29.6373  -42.8333  -53.3985 C.ar      11 UNK        -0.0871 
     12 C12        29.1109  -41.9620  -54.3567 C.ar      11 UNK        -0.1008 
     13 C13        29.9492  -41.1090  -55.0827 C.ar      11 UNK        -0.0735 
     14 C14        31.3234  -41.1157  -54.8241 C.ar      11 UNK        -0.0945 
     15 C15        29.3822  -40.1785  -56.1493 C.3       11 UNK         0.0169 
     16 S16        28.2977  -41.0248  -57.3472 S.3       11 UNK        -0.2669 
     17 C17        29.4124  -42.2962  -58.0417 C.3       11 UNK        -0.0850 
     18 CA         28.6311  -43.4462  -58.7312 C.3       10 UNK         0.0855 
     19 C          29.5905  -44.4418  -59.4511 C.2       10 UNK         0.5543 
     20 N          29.4955  -45.7504  -59.2422 N.am      10 UNK        -0.7343 
     21 O          30.4390  -44.0154  -60.2306 O.2       10 UNK        -0.5027 
     22 N          27.6831  -44.0898  -57.8076 N.am      10 UNK        -0.4495 
     23 C          26.5358  -44.6650  -58.1785 C.2       10 UNK         0.4903 
     24 O          26.0815  -44.6425  -59.3246 O.2       10 UNK        -0.4860 
     25 CA         25.7687  -45.4097  -57.0736 C.3       9 UNK         0.0227 
     26 CB         24.4931  -44.6463  -56.6834 C.3       9 UNK        -0.1964 
     27 N          25.4255  -46.7784  -57.4693 N.am      9 UNK        -0.4231 
     28 C          26.3161  -47.7142  -57.8246 C.2       9 UNK         0.5014 
     29 O          27.5323  -47.5209  -57.8819 O.2       9 UNK        -0.5270 
     30 CA         25.7608  -49.0893  -58.2005 C.3       8 UNK         0.0284 
     31 CB         25.8035  -49.3012  -59.7252 C.3       8 UNK        -0.1977 
     32 N          26.5513  -50.1113  -57.5198 N.am      8 UNK        -0.4342 
     33 C          26.1276  -51.3507  -57.2430 C.2       8 UNK         0.5039 
     34 O          25.0280  -51.7909  -57.5825 O.2       8 UNK        -0.5547 
     35 CA         27.0718  -52.2464  -56.4281 C.3       7 UNK         0.0281 
     36 CB         28.2300  -52.7722  -57.2935 C.3       7 UNK        -0.1963 
     37 N          27.5957  -51.5304  -55.2642 N.am      7 UNK        -0.4444 
     38 C          26.9703  -51.4590  -54.0803 C.2       7 UNK         0.5104 
     39 O          25.9203  -52.0511  -53.8272 O.2       7 UNK        -0.5100 
     40 CA         27.6156  -50.5949  -52.9790 C.3       6 UNK         0.0396 
     41 CB         28.4309  -51.4792  -52.0227 C.3       6 UNK        -0.1801 
     42 N          28.4654  -49.5152  -53.4904 N.am      6 UNK        -0.4747 
     43 C          28.0061  -48.4466  -54.1608 C.2       6 UNK         0.5012 
     44 O          26.8083  -48.2410  -54.3608 O.2       6 UNK        -0.5003 
     45 CA         29.0524  -47.4761  -54.7566 C.3       5 UNK         0.0782 
     46 C46        29.3826  -46.2971  -53.8028 C.3       11 UNK        -0.0868 
     47 S47        28.0299  -45.0731  -53.7319 S.3       11 UNK        -0.2515 
     48 C48        28.7167  -43.7825  -52.6442 C.3       11 UNK         0.0199 
     49 N          30.2652  -48.1492  -55.2425 N.am      5 UNK        -0.4607 
     50 C          30.2978  -49.1130  -56.1766 C.2       4 UNK         0.5031 
     51 O          29.2956  -49.6276  -56.6686 O.2       4 UNK        -0.5119 
     52 CA         31.6789  -49.6157  -56.6129 C.3       4 UNK         0.0263 
     53 CB         32.3823  -48.5787  -57.5048 C.3       4 UNK        -0.1967 
     54 N          32.5052  -49.9143  -55.4460 N.am      4 UNK        -0.4237 
     55 C          32.5459  -51.1036  -54.8297 C.2       3 UNK         0.4908 
     56 O          31.9779  -52.1133  -55.2473 O.2       3 UNK        -0.5102 
     57 CA         33.3439  -51.1853  -53.5139 C.3       3 UNK         0.0241 
     58 CB         34.7927  -51.6189  -53.7893 C.3       3 UNK        -0.1971 
     59 N          33.3492  -49.9371  -52.7438 N.am      3 UNK        -0.4139 
     60 C          32.2570  -49.3537  -52.2310 C.2       2 UNK         0.5016 
     61 O          31.1203  -49.8117  -52.3342 O.2       2 UNK        -0.5319 
     62 CA         32.4515  -47.9980  -51.5332 C.3       2 UNK         0.0286 
     63 CB         32.8210  -48.2046  -50.0560 C.3       2 UNK        -0.1963 
     64 N          33.4287  -47.0947  -52.1567 N.am      2 UNK        -0.4790 
     65 C          33.4998  -46.7516  -53.4534 C.2       1 UNK         0.5024 
     66 O          32.8195  -47.2856  -54.3292 O.2       1 UNK        -0.4888 
     67 H67        37.7950  -44.3558  -51.1587 H         1 UNK         0.0892 
     68 H68        36.1956  -43.7375  -50.7440 H         1 UNK         0.0892 
     69 H69        36.7717  -45.2437  -50.0265 H         1 UNK         0.0892 
     70 H70        34.7046  -44.0889  -52.3786 H         1 UNK         0.3107 
     71 H71        35.1990  -45.9966  -54.4966 H         1 UNK         0.0773 
     72 H72        32.5831  -44.4899  -54.3455 H         1 UNK         0.0680 
     73 H73        33.5095  -44.9567  -55.7167 H         1 UNK         0.0680 
     74 H74        33.7225  -40.9401  -53.5549 H         1 UNK         0.0650 
     75 H75        33.5701  -42.3899  -52.6010 H         1 UNK         0.0650 
     76 H76        31.4206  -43.4796  -52.3883 H         1 UNK         0.1397 
     77 H77        28.0475  -41.9649  -54.5544 H         1 UNK         0.1363 
     78 H78        31.9818  -40.4630  -55.3811 H         1 UNK         0.1355 
     79 H79        28.8132  -39.3882  -55.6580 H         1 UNK         0.0707 
     80 H80        30.1846  -39.6845  -56.6996 H         1 UNK         0.0707 
     81 H81        30.0512  -42.7022  -57.2558 H         1 UNK         0.1034 
     82 H82        30.0795  -41.8017  -58.7505 H         1 UNK         0.1034 
     83 H83        28.0504  -42.9876  -59.5339 H         1 UNK         0.0482 
     84 H84        28.7755  -46.1470  -58.6471 H         1 UNK         0.3460 
     85 H85        30.1257  -46.3653  -59.7300 H         1 UNK         0.3460 
     86 H86        27.9807  -44.1569  -56.8454 H         1 UNK         0.2989 
     87 H87        26.4038  -45.4826  -56.1893 H         1 UNK         0.0559 
     88 H88        23.7955  -44.5711  -57.5187 H         1 UNK         0.0848 
     89 H89        24.7308  -43.6302  -56.3654 H         1 UNK         0.0848 
     90 H90        23.9770  -45.1305  -55.8542 H         1 UNK         0.0848 
     91 H91        24.4433  -47.0112  -57.4837 H         1 UNK         0.3144 
     92 H92        24.7259  -49.1563  -57.8578 H         1 UNK         0.0727 
     93 H93        25.3690  -50.2601  -60.0078 H         1 UNK         0.0790 
     94 H94        26.8260  -49.2715  -60.1041 H         1 UNK         0.0790 
     95 H95        25.2399  -48.5242  -60.2432 H         1 UNK         0.0790 
     96 H96        27.4785  -49.8116  -57.2156 H         1 UNK         0.3215 
     97 H97        26.5000  -53.1126  -56.0873 H         1 UNK         0.0863 
     98 H98        28.8314  -51.9665  -57.7142 H         1 UNK         0.0808 
     99 H99        27.8505  -53.3612  -58.1293 H         1 UNK         0.0808 
    100 H100       28.8938  -53.4169  -56.7171 H         1 UNK         0.0808 
    101 H101       28.4140  -50.9521  -55.4211 H         1 UNK         0.3118 
    102 H102       26.8054  -50.1389  -52.4062 H         1 UNK         0.0546 
    103 H103       28.8174  -50.9029  -51.1822 H         1 UNK         0.0828 
    104 H104       29.2787  -51.9432  -52.5286 H         1 UNK         0.0828 
    105 H105       27.8173  -52.2810  -51.6097 H         1 UNK         0.0828 
    106 H106       29.4645  -49.6033  -53.3170 H         1 UNK         0.3005 
    107 H107       28.5922  -47.0483  -55.6478 H         1 UNK         0.1257 
    108 H108       30.2752  -45.7731  -54.1490 H         1 UNK         0.0775 
    109 H109       29.6062  -46.6540  -52.7965 H         1 UNK         0.0775 
    110 H110       27.8917  -43.2090  -52.2192 H         1 UNK         0.0840 
    111 H111       29.2294  -44.2477  -51.8008 H         1 UNK         0.0840 
    112 H112       31.1502  -47.7998  -54.8846 H         1 UNK         0.2987 
    113 H113       31.5364  -50.5229  -57.2046 H         1 UNK         0.0785 
    114 H114       33.3462  -48.9483  -57.8544 H         1 UNK         0.0798 
    115 H115       31.7808  -48.3560  -58.3872 H         1 UNK         0.0798 
    116 H116       32.5548  -47.6362  -56.9842 H         1 UNK         0.0798 
    117 H117       32.9447  -49.1179  -54.9965 H         1 UNK         0.3079 
    118 H118       32.8693  -51.9500  -52.8952 H         1 UNK         0.0794 
    119 H119       35.3445  -51.7735  -52.8617 H         1 UNK         0.0786 
    120 H120       35.3307  -50.8779  -54.3820 H         1 UNK         0.0786 
    121 H121       34.8202  -52.5599  -54.3408 H         1 UNK         0.0786 
    122 H122       34.2383  -49.4741  -52.6207 H         1 UNK         0.3032 
    123 H123       31.4868  -47.4891  -51.5672 H         1 UNK         0.1094 
    124 H124       32.1033  -48.8611  -49.5612 H         1 UNK         0.0794 
    125 H125       33.8072  -48.6574  -49.9456 H         1 UNK         0.0794 
    126 H126       32.8211  -47.2611  -49.5099 H         1 UNK         0.0794 
    127 H127       34.0432  -46.6039  -51.5238 H         1 UNK         0.3016 
@<TRIPOS>BOND
     1    1    2 1    
     2    1   67 1    
     3    1   68 1    
     4    1   69 1    
     5    2    3 2    
     6    2    4 am   BACKBONE|DICT|INTERRES
     7    4    5 1    
     8    4   70 1    
     9    5    6 1    
    10    5   65 1    
    11    5   71 1    
    12    6    7 1    
    13    6   72 1    
    14    6   73 1    
    15    7    8 1    
    16    8    9 1    
    17    8   74 1    
    18    8   75 1    
    19    9   10 ar   
    20    9   14 ar   
    21   10   11 ar   
    22   10   76 1    
    23   11   12 ar   
    24   11   48 1    
    25   12   13 ar   
    26   12   77 1    
    27   13   14 ar   
    28   13   15 1    
    29   14   78 1    
    30   15   16 1    
    31   15   79 1    
    32   15   80 1    
    33   16   17 1    
    34   17   18 1    
    35   17   81 1    
    36   17   82 1    
    37   18   19 1    
    38   18   22 1    
    39   18   83 1    
    40   19   20 am   BACKBONE|DICT|INTERRES
    41   19   21 2    
    42   20   84 1    
    43   20   85 1    
    44   22   23 am   BACKBONE|DICT|INTERRES
    45   22   86 1    
    46   23   24 2    
    47   23   25 1    
    48   25   26 1    
    49   25   27 1    
    50   25   87 1    
    51   26   88 1    
    52   26   89 1    
    53   26   90 1    
    54   27   28 am   BACKBONE|DICT|INTERRES
    55   27   91 1    
    56   28   29 2    
    57   28   30 1    
    58   30   31 1    
    59   30   32 1    
    60   30   92 1    
    61   31   93 1    
    62   31   94 1    
    63   31   95 1    
    64   32   33 am   BACKBONE|DICT|INTERRES
    65   32   96 1    
    66   33   34 2    
    67   33   35 1    
    68   35   36 1    
    69   35   37 1    
    70   35   97 1    
    71   36   98 1    
    72   36   99 1    
    73   36  100 1    
    74   37   38 am   BACKBONE|DICT|INTERRES
    75   37  101 1    
    76   38   39 2    
    77   38   40 1    
    78   40   41 1    
    79   40   42 1    
    80   40  102 1    
    81   41  103 1    
    82   41  104 1    
    83   41  105 1    
    84   42   43 am   BACKBONE|DICT|INTERRES
    85   42  106 1    
    86   43   44 2    
    87   43   45 1    
    88   45   46 1    
    89   45   49 1    
    90   45  107 1    
    91   46   47 1    
    92   46  108 1    
    93   46  109 1    
    94   47   48 1    
    95   48  110 1    
    96   48  111 1    
    97   49   50 am   BACKBONE|DICT|INTERRES
    98   49  112 1    
    99   50   51 2    
   100   50   52 1    
   101   52   53 1    
   102   52   54 1    
   103   52  113 1    
   104   53  114 1    
   105   53  115 1    
   106   53  116 1    
   107   54   55 am   BACKBONE|DICT|INTERRES
   108   54  117 1    
   109   55   56 2    
   110   55   57 1    
   111   57   58 1    
   112   57   59 1    
   113   57  118 1    
   114   58  119 1    
   115   58  120 1    
   116   58  121 1    
   117   59   60 am   BACKBONE|DICT|INTERRES
   118   59  122 1    
   119   60   61 2    
   120   60   62 1    
   121   62   63 1    
   122   62   64 1    
   123   62  123 1    
   124   63  124 1    
   125   63  125 1    
   126   63  126 1    
   127   64   65 am   BACKBONE|DICT|INTERRES
   128   64  127 1    
   129   65   66 2    
@<TRIPOS>SUBSTRUCTURE
     1 UNK         1 GROUP             0       ****    0 ROOT    
