@<TRIPOS>MOLECULE
3R134
127   129    1
SMALL
USER_CHARGES


@<TRIPOS>ATOM
      1 CA         35.7725  -45.2022  -47.8768 C.3       0 UNK        -0.1968 
      2 C          36.1488  -45.4064  -49.3372 C.2       0 UNK         0.4852 
      3 O          37.3267  -45.6004  -49.6432 O.2       0 UNK        -0.5359 
      4 N          35.1603  -45.3565  -50.2397 N.am      1 UNK        -0.4300 
      5 CA         35.3261  -45.5983  -51.6748 C.3       1 UNK         0.0863 
      6 C6         34.0889  -45.1044  -52.4658 C.3       11 UNK        -0.0953 
      7 S7         34.4011  -44.9784  -54.2608 S.3       11 UNK        -0.2369 
      8 C8         33.4348  -43.5031  -54.7056 C.3       11 UNK         0.0226 
      9 C9         31.9413  -43.7933  -54.7268 C.ar      11 UNK        -0.0699 
     10 C10        31.1690  -43.6087  -53.5772 C.ar      11 UNK        -0.0804 
     11 C11        29.7941  -43.8611  -53.5936 C.ar      11 UNK        -0.0871 
     12 C12        29.1848  -44.2743  -54.7845 C.ar      11 UNK        -0.1008 
     13 C13        29.9498  -44.4709  -55.9395 C.ar      11 UNK        -0.0735 
     14 C14        31.3271  -44.2327  -55.9027 C.ar      11 UNK        -0.0945 
     15 C15        29.2964  -44.9333  -57.2328 C.3       11 UNK         0.0169 
     16 S16        28.8546  -43.5082  -58.2707 S.3       11 UNK        -0.2669 
     17 C17        28.2341  -44.3192  -59.7846 C.3       11 UNK        -0.0850 
     18 CA         26.6835  -44.3117  -59.8492 C.3       10 UNK         0.0855 
     19 C          26.1411  -44.5775  -61.2853 C.2       10 UNK         0.5543 
     20 N          25.1016  -45.3830  -61.4745 N.am      10 UNK        -0.7343 
     21 O          26.6534  -44.0180  -62.2520 O.2       10 UNK        -0.5027 
     22 N          26.1191  -45.2315  -58.8537 N.am      10 UNK        -0.4495 
     23 C          25.1787  -44.9289  -57.9509 C.2       10 UNK         0.4903 
     24 O          24.7236  -43.7958  -57.7865 O.2       10 UNK        -0.4860 
     25 CA         24.6524  -46.0962  -57.0886 C.3       9 UNK         0.0227 
     26 CB         23.2280  -45.8482  -56.5481 C.3       9 UNK        -0.1964 
     27 N          24.7395  -47.3989  -57.7625 N.am      9 UNK        -0.4231 
     28 C          24.1507  -47.7571  -58.9163 C.2       9 UNK         0.5014 
     29 O          23.3837  -47.0243  -59.5438 O.2       9 UNK        -0.5270 
     30 CA         24.5157  -49.1441  -59.4912 C.3       8 UNK         0.0284 
     31 CB         24.3087  -49.2212  -61.0193 C.3       8 UNK        -0.1977 
     32 N          25.8688  -49.5979  -59.1381 N.am      8 UNK        -0.4342 
     33 C          27.0270  -48.9611  -59.3738 C.2       8 UNK         0.5039 
     34 O          27.1104  -47.8724  -59.9463 O.2       8 UNK        -0.5547 
     35 CA         28.2892  -49.6308  -58.7917 C.3       7 UNK         0.0281 
     36 CB         29.5306  -48.7167  -58.8657 C.3       7 UNK        -0.1963 
     37 N          28.1084  -50.1175  -57.4130 N.am      7 UNK        -0.4444 
     38 C          27.6641  -49.4091  -56.3619 C.2       7 UNK         0.5104 
     39 O          27.2552  -48.2499  -56.4520 O.2       7 UNK        -0.5100 
     40 CA         27.6644  -50.0919  -54.9793 C.3       6 UNK         0.0396 
     41 CB         28.2665  -51.5116  -54.9674 C.3       6 UNK        -0.1801 
     42 N          28.4089  -49.2441  -54.0502 N.am      6 UNK        -0.4747 
     43 C          27.8832  -48.2236  -53.3543 C.2       6 UNK         0.5012 
     44 O          26.6704  -48.0336  -53.2409 O.2       6 UNK        -0.5003 
     45 CA         28.8797  -47.2239  -52.7231 C.3       5 UNK         0.0782 
     46 C46        28.2484  -46.3303  -51.6230 C.3       11 UNK        -0.0868 
     47 S47        29.3483  -44.9755  -51.0890 S.3       11 UNK        -0.2515 
     48 C48        28.9815  -43.6765  -52.3185 C.3       11 UNK         0.0199 
     49 N          30.1576  -47.8361  -52.3479 N.am      5 UNK        -0.4607 
     50 C          30.3589  -48.8351  -51.4796 C.2       4 UNK         0.5031 
     51 O          29.4801  -49.2966  -50.7503 O.2       4 UNK        -0.5119 
     52 CA         31.7812  -49.4386  -51.4483 C.3       4 UNK         0.0263 
     53 CB         31.7626  -50.9508  -51.1422 C.3       4 UNK        -0.1967 
     54 N          32.5811  -49.1749  -52.6580 N.am      4 UNK        -0.4237 
     55 C          32.2787  -49.5058  -53.9274 C.2       3 UNK         0.4908 
     56 O          31.2375  -50.0770  -54.2492 O.2       3 UNK        -0.5102 
     57 CA         33.2504  -49.0797  -55.0444 C.3       3 UNK         0.0241 
     58 CB         32.6172  -47.9618  -55.8927 C.3       3 UNK        -0.1971 
     59 N          34.5504  -48.6246  -54.5480 N.am      3 UNK        -0.4139 
     60 C          35.5140  -49.4247  -54.0680 C.2       2 UNK         0.5016 
     61 O          35.4553  -50.6543  -54.0852 O.2       2 UNK        -0.5319 
     62 CA         36.7348  -48.7360  -53.4264 C.3       2 UNK         0.0286 
     63 CB         37.9033  -48.6742  -54.4231 C.3       2 UNK        -0.1963 
     64 N          36.4537  -47.3833  -52.9274 N.am      2 UNK        -0.4790 
     65 C          35.5891  -47.0930  -51.9445 C.2       1 UNK         0.5024 
     66 O          34.9505  -47.9467  -51.3245 O.2       1 UNK        -0.4888 
     67 H67        34.7039  -45.0288  -47.7508 H         1 UNK         0.0892 
     68 H68        36.0440  -46.0817  -47.2935 H         1 UNK         0.0892 
     69 H69        36.3053  -44.3440  -47.4683 H         1 UNK         0.0892 
     70 H70        34.2102  -45.2248  -49.9239 H         1 UNK         0.3107 
     71 H71        36.1971  -45.0252  -52.0014 H         1 UNK         0.0773 
     72 H72        33.2198  -45.7440  -52.2969 H         1 UNK         0.0680 
     73 H73        33.8092  -44.1150  -52.1021 H         1 UNK         0.0680 
     74 H74        33.7566  -43.1613  -55.6904 H         1 UNK         0.0650 
     75 H75        33.6594  -42.6881  -54.0160 H         1 UNK         0.0650 
     76 H76        31.6374  -43.2743  -52.6620 H         1 UNK         0.1397 
     77 H77        28.1188  -44.4561  -54.8119 H         1 UNK         0.1363 
     78 H78        31.9202  -44.3781  -56.7954 H         1 UNK         0.1355 
     79 H79        28.4064  -45.5289  -57.0220 H         1 UNK         0.0707 
     80 H80        29.9839  -45.5792  -57.7803 H         1 UNK         0.0707 
     81 H81        28.6616  -43.7721  -60.6268 H         1 UNK         0.1034 
     82 H82        28.6207  -45.3373  -59.8625 H         1 UNK         0.1034 
     83 H83        26.3565  -43.2945  -59.6271 H         1 UNK         0.0482 
     84 H84        24.7626  -45.5316  -62.4112 H         1 UNK         0.3460 
     85 H85        24.6419  -45.8379  -60.6951 H         1 UNK         0.3460 
     86 H86        26.4017  -46.2004  -58.9670 H         1 UNK         0.2989 
     87 H87        25.3231  -46.1589  -56.2303 H         1 UNK         0.0559 
     88 H88        23.1962  -44.9545  -55.9239 H         1 UNK         0.0848 
     89 H89        22.8858  -46.6813  -55.9343 H         1 UNK         0.0848 
     90 H90        22.5076  -45.7060  -57.3542 H         1 UNK         0.0848 
     91 H91        25.4293  -48.0275  -57.3629 H         1 UNK         0.3144 
     92 H92        23.8245  -49.8498  -59.0281 H         1 UNK         0.0727 
     93 H93        24.9343  -48.5004  -61.5473 H         1 UNK         0.0790 
     94 H94        23.2726  -49.0115  -61.2882 H         1 UNK         0.0790 
     95 H95        24.5451  -50.2138  -61.4024 H         1 UNK         0.0790 
     96 H96        25.9162  -50.4717  -58.6317 H         1 UNK         0.3215 
     97 H97        28.4839  -50.5053  -59.4145 H         1 UNK         0.0863 
     98 H98        30.4229  -49.2282  -58.5055 H         1 UNK         0.0808 
     99 H99        29.3972  -47.8155  -58.2683 H         1 UNK         0.0808 
    100 H100       29.7290  -48.4028  -59.8914 H         1 UNK         0.0808 
    101 H101       28.4046  -51.0687  -57.2434 H         1 UNK         0.3118 
    102 H102       26.6244  -50.1702  -54.6566 H         1 UNK         0.0546 
    103 H103       29.2948  -51.5288  -55.3303 H         1 UNK         0.0828 
    104 H104       27.6807  -52.1966  -55.5816 H         1 UNK         0.0828 
    105 H105       28.2728  -51.9216  -53.9573 H         1 UNK         0.0828 
    106 H106       29.4194  -49.3540  -54.0727 H         1 UNK         0.3005 
    107 H107       29.1298  -46.5745  -53.5578 H         1 UNK         0.1257 
    108 H108       27.9954  -46.9321  -50.7488 H         1 UNK         0.0775 
    109 H109       27.3105  -45.8890  -51.9645 H         1 UNK         0.0775 
    110 H110       27.9118  -43.6498  -52.5317 H         1 UNK         0.0840 
    111 H111       29.2246  -42.7064  -51.8824 H         1 UNK         0.0840 
    112 H112       30.9552  -47.5214  -52.8793 H         1 UNK         0.2987 
    113 H113       32.3003  -48.9402  -50.6282 H         1 UNK         0.0785 
    114 H114       31.3002  -51.1516  -50.1751 H         1 UNK         0.0798 
    115 H115       32.7723  -51.3600  -51.1072 H         1 UNK         0.0798 
    116 H116       31.2007  -51.5073  -51.8933 H         1 UNK         0.0798 
    117 H117       33.4656  -48.7111  -52.4790 H         1 UNK         0.3079 
    118 H118       33.4103  -49.9492  -55.6856 H         1 UNK         0.0794 
    119 H119       33.2694  -47.6673  -56.7150 H         1 UNK         0.0786 
    120 H120       32.4042  -47.0722  -55.2987 H         1 UNK         0.0786 
    121 H121       31.6739  -48.2894  -56.3324 H         1 UNK         0.0786 
    122 H122       34.6983  -47.6254  -54.5091 H         1 UNK         0.3032 
    123 H123       37.0388  -49.3496  -52.5751 H         1 UNK         0.1094 
    124 H124       37.6643  -48.0553  -55.2890 H         1 UNK         0.0794 
    125 H125       38.8021  -48.2697  -53.9573 H         1 UNK         0.0794 
    126 H126       38.1534  -49.6696  -54.7934 H         1 UNK         0.0794 
    127 H127       36.9218  -46.6221  -53.3999 H         1 UNK         0.3016 
@<TRIPOS>BOND
     1    1    2 1    
     2    1   67 1    
     3    1   68 1    
     4    1   69 1    
     5    2    3 2    
     6    2    4 am   BACKBONE|DICT|INTERRES
     7    4    5 1    
     8    4   70 1    
     9    5    6 1    
    10    5   65 1    
    11    5   71 1    
    12    6    7 1    
    13    6   72 1    
    14    6   73 1    
    15    7    8 1    
    16    8    9 1    
    17    8   74 1    
    18    8   75 1    
    19    9   10 ar   
    20    9   14 ar   
    21   10   11 ar   
    22   10   76 1    
    23   11   12 ar   
    24   11   48 1    
    25   12   13 ar   
    26   12   77 1    
    27   13   14 ar   
    28   13   15 1    
    29   14   78 1    
    30   15   16 1    
    31   15   79 1    
    32   15   80 1    
    33   16   17 1    
    34   17   18 1    
    35   17   81 1    
    36   17   82 1    
    37   18   19 1    
    38   18   22 1    
    39   18   83 1    
    40   19   20 am   BACKBONE|DICT|INTERRES
    41   19   21 2    
    42   20   84 1    
    43   20   85 1    
    44   22   23 am   BACKBONE|DICT|INTERRES
    45   22   86 1    
    46   23   24 2    
    47   23   25 1    
    48   25   26 1    
    49   25   27 1    
    50   25   87 1    
    51   26   88 1    
    52   26   89 1    
    53   26   90 1    
    54   27   28 am   BACKBONE|DICT|INTERRES
    55   27   91 1    
    56   28   29 2    
    57   28   30 1    
    58   30   31 1    
    59   30   32 1    
    60   30   92 1    
    61   31   93 1    
    62   31   94 1    
    63   31   95 1    
    64   32   33 am   BACKBONE|DICT|INTERRES
    65   32   96 1    
    66   33   34 2    
    67   33   35 1    
    68   35   36 1    
    69   35   37 1    
    70   35   97 1    
    71   36   98 1    
    72   36   99 1    
    73   36  100 1    
    74   37   38 am   BACKBONE|DICT|INTERRES
    75   37  101 1    
    76   38   39 2    
    77   38   40 1    
    78   40   41 1    
    79   40   42 1    
    80   40  102 1    
    81   41  103 1    
    82   41  104 1    
    83   41  105 1    
    84   42   43 am   BACKBONE|DICT|INTERRES
    85   42  106 1    
    86   43   44 2    
    87   43   45 1    
    88   45   46 1    
    89   45   49 1    
    90   45  107 1    
    91   46   47 1    
    92   46  108 1    
    93   46  109 1    
    94   47   48 1    
    95   48  110 1    
    96   48  111 1    
    97   49   50 am   BACKBONE|DICT|INTERRES
    98   49  112 1    
    99   50   51 2    
   100   50   52 1    
   101   52   53 1    
   102   52   54 1    
   103   52  113 1    
   104   53  114 1    
   105   53  115 1    
   106   53  116 1    
   107   54   55 am   BACKBONE|DICT|INTERRES
   108   54  117 1    
   109   55   56 2    
   110   55   57 1    
   111   57   58 1    
   112   57   59 1    
   113   57  118 1    
   114   58  119 1    
   115   58  120 1    
   116   58  121 1    
   117   59   60 am   BACKBONE|DICT|INTERRES
   118   59  122 1    
   119   60   61 2    
   120   60   62 1    
   121   62   63 1    
   122   62   64 1    
   123   62  123 1    
   124   63  124 1    
   125   63  125 1    
   126   63  126 1    
   127   64   65 am   BACKBONE|DICT|INTERRES
   128   64  127 1    
   129   65   66 2    
@<TRIPOS>SUBSTRUCTURE
     1 UNK         1 GROUP             0       ****    0 ROOT    
