@<TRIPOS>MOLECULE
3R134
127   129    1
SMALL
USER_CHARGES


@<TRIPOS>ATOM
      1 CA         31.2786  -44.4379  -47.6565 C.3       0 UNK        -0.1968 
      2 C          32.5779  -45.1192  -48.0601 C.2       0 UNK         0.4852 
      3 O          33.2182  -45.7584  -47.2241 O.2       0 UNK        -0.5359 
      4 N          32.9715  -44.9862  -49.3340 N.am      1 UNK        -0.4300 
      5 CA         34.1821  -45.5877  -49.9079 C.3       1 UNK         0.0863 
      6 C6         34.5852  -44.8987  -51.2371 C.3       11 UNK        -0.0953 
      7 S7         33.3128  -45.0179  -52.5412 S.3       11 UNK        -0.2369 
      8 C8         33.7229  -43.5772  -53.5680 C.3       11 UNK         0.0226 
      9 C9         32.9192  -43.6029  -54.8574 C.ar      11 UNK        -0.0699 
     10 C10        33.4656  -44.1617  -56.0146 C.ar      11 UNK        -0.0804 
     11 C11        32.7175  -44.2226  -57.1929 C.ar      11 UNK        -0.0871 
     12 C12        31.4110  -43.7280  -57.2067 C.ar      11 UNK        -0.1008 
     13 C13        30.8453  -43.1669  -56.0517 C.ar      11 UNK        -0.0735 
     14 C14        31.6174  -43.0956  -54.8872 C.ar      11 UNK        -0.0945 
     15 C15        29.4112  -42.6369  -55.9923 C.3       11 UNK         0.0169 
     16 S16        28.3810  -42.9799  -57.4584 S.3       11 UNK        -0.2669 
     17 C17        26.7337  -42.4865  -56.8476 C.3       11 UNK        -0.0850 
     18 CA         25.8549  -43.7023  -56.4531 C.3       10 UNK         0.0855 
     19 C          24.4805  -43.2131  -55.9188 C.2       10 UNK         0.5543 
     20 N          24.3318  -43.0895  -54.6071 N.am      10 UNK        -0.7343 
     21 O          23.5724  -42.8960  -56.6851 O.2       10 UNK        -0.5027 
     22 N          25.7470  -44.6520  -57.5698 N.am      10 UNK        -0.4495 
     23 C          25.0836  -45.8137  -57.5721 C.2       10 UNK         0.4903 
     24 O          24.4470  -46.2505  -56.6127 O.2       10 UNK        -0.4860 
     25 CA         25.1296  -46.6381  -58.8669 C.3       9 UNK         0.0227 
     26 CB         25.8243  -45.9372  -60.0546 C.3       9 UNK        -0.1964 
     27 N          25.8180  -47.8941  -58.5848 N.am      9 UNK        -0.4231 
     28 C          25.3077  -49.1144  -58.7871 C.2       9 UNK         0.5014 
     29 O          24.1888  -49.3260  -59.2587 O.2       9 UNK        -0.5270 
     30 CA         26.1989  -50.3126  -58.4245 C.3       8 UNK         0.0284 
     31 CB         27.1408  -50.6475  -59.5926 C.3       8 UNK        -0.1977 
     32 N          26.9804  -50.1151  -57.2008 N.am      8 UNK        -0.4342 
     33 C          26.4639  -50.1020  -55.9634 C.2       8 UNK         0.5039 
     34 O          25.2643  -50.2396  -55.7202 O.2       8 UNK        -0.5547 
     35 CA         27.4501  -49.9281  -54.7955 C.3       7 UNK         0.0281 
     36 CB         28.1872  -51.2439  -54.4965 C.3       7 UNK        -0.1963 
     37 N          28.4256  -48.8664  -55.0371 N.am      7 UNK        -0.4444 
     38 C          28.1447  -47.5563  -55.0204 C.2       7 UNK         0.5104 
     39 O          27.0438  -47.0904  -54.7314 O.2       7 UNK        -0.5100 
     40 CA         29.2923  -46.6034  -55.3907 C.3       6 UNK         0.0396 
     41 CB         30.1492  -46.2960  -54.1532 C.3       6 UNK        -0.1801 
     42 N          30.1408  -47.1372  -56.4591 N.am      6 UNK        -0.4747 
     43 C          29.7376  -47.3203  -57.7245 C.2       6 UNK         0.5012 
     44 O          28.6078  -47.0427  -58.1293 O.2       6 UNK        -0.5003 
     45 CA         30.7383  -47.9875  -58.6891 C.3       5 UNK         0.0782 
     46 C46        31.6867  -46.9609  -59.3676 C.3       11 UNK        -0.0868 
     47 S47        33.2382  -46.6291  -58.4526 S.3       11 UNK        -0.2515 
     48 C48        33.3339  -44.8131  -58.4505 C.3       11 UNK         0.0199 
     49 N          31.4664  -49.0967  -58.0647 N.am      5 UNK        -0.4607 
     50 C          30.9167  -50.2276  -57.6075 C.2       4 UNK         0.5031 
     51 O          29.7230  -50.4987  -57.7136 O.2       4 UNK        -0.5119 
     52 CA         31.8479  -51.1905  -56.8523 C.3       4 UNK         0.0263 
     53 CB         32.6112  -52.0895  -57.8375 C.3       4 UNK        -0.1967 
     54 N          32.7971  -50.5003  -55.9707 N.am      4 UNK        -0.4237 
     55 C          32.4401  -49.7184  -54.9425 C.2       3 UNK         0.4908 
     56 O          31.2680  -49.4898  -54.6345 O.2       3 UNK        -0.5102 
     57 CA         33.5815  -49.0317  -54.1752 C.3       3 UNK         0.0241 
     58 CB         34.0105  -47.7444  -54.8987 C.3       3 UNK        -0.1971 
     59 N          33.1836  -48.6951  -52.8077 N.am      3 UNK        -0.4139 
     60 C          33.0146  -49.5835  -51.8181 C.2       2 UNK         0.5016 
     61 O          33.2562  -50.7869  -51.9362 O.2       2 UNK        -0.5319 
     62 CA         32.4812  -49.0358  -50.4762 C.3       2 UNK         0.0286 
     63 CB         32.8557  -49.9277  -49.2726 C.3       2 UNK        -0.1963 
     64 N          32.8450  -47.6336  -50.2230 N.am      2 UNK        -0.4790 
     65 C          34.0794  -47.1210  -50.0782 C.2       1 UNK         0.5024 
     66 O          35.1115  -47.7928  -50.0968 O.2       1 UNK        -0.4888 
     67 H67        30.8194  -43.9071  -48.4903 H         1 UNK         0.0892 
     68 H68        30.5657  -45.1764  -47.2909 H         1 UNK         0.0892 
     69 H69        31.4642  -43.7192  -46.8587 H         1 UNK         0.0892 
     70 H70        32.4121  -44.4439  -49.9776 H         1 UNK         0.3107 
     71 H71        34.9946  -45.4150  -49.1984 H         1 UNK         0.0773 
     72 H72        35.5162  -45.3196  -51.6219 H         1 UNK         0.0680 
     73 H73        34.7939  -43.8447  -51.0467 H         1 UNK         0.0680 
     74 H74        34.7918  -43.5789  -53.7875 H         1 UNK         0.0650 
     75 H75        33.5177  -42.6611  -53.0120 H         1 UNK         0.0650 
     76 H76        34.4709  -44.5604  -55.9964 H         1 UNK         0.1397 
     77 H77        30.8445  -43.7914  -58.1239 H         1 UNK         0.1363 
     78 H78        31.1926  -42.6724  -53.9871 H         1 UNK         0.1355 
     79 H79        28.9188  -43.0725  -55.1213 H         1 UNK         0.0707 
     80 H80        29.4412  -41.5585  -55.8311 H         1 UNK         0.0707 
     81 H81        26.2459  -41.9046  -57.6323 H         1 UNK         0.1034 
     82 H82        26.8501  -41.8054  -56.0022 H         1 UNK         0.1034 
     83 H83        26.3598  -44.2373  -55.6460 H         1 UNK         0.0482 
     84 H84        25.0727  -43.3426  -53.9719 H         1 UNK         0.3460 
     85 H85        23.4530  -42.7559  -54.2429 H         1 UNK         0.3460 
     86 H86        26.2533  -44.3914  -58.4025 H         1 UNK         0.2989 
     87 H87        24.0907  -46.8207  -59.1484 H         1 UNK         0.0559 
     88 H88        26.8773  -45.7332  -59.8549 H         1 UNK         0.0848 
     89 H89        25.3366  -44.9926  -60.2994 H         1 UNK         0.0848 
     90 H90        25.7783  -46.5572  -60.9501 H         1 UNK         0.0848 
     91 H91        26.7512  -47.8033  -58.1926 H         1 UNK         0.3144 
     92 H92        25.5442  -51.1724  -58.2659 H         1 UNK         0.0727 
     93 H93        27.7144  -51.5526  -59.3919 H         1 UNK         0.0790 
     94 H94        27.8475  -49.8392  -59.7849 H         1 UNK         0.0790 
     95 H95        26.5794  -50.8174  -60.5123 H         1 UNK         0.0790 
     96 H96        27.9930  -50.0757  -57.3105 H         1 UNK         0.3215 
     97 H97        26.8709  -49.6582  -53.9096 H         1 UNK         0.0863 
     98 H98        28.8457  -51.1416  -53.6336 H         1 UNK         0.0808 
     99 H99        28.7945  -51.5704  -55.3410 H         1 UNK         0.0808 
    100 H100       27.4804  -52.0443  -54.2739 H         1 UNK         0.0808 
    101 H101       29.3887  -49.1468  -55.1994 H         1 UNK         0.3118 
    102 H102       28.8577  -45.6682  -55.7497 H         1 UNK         0.0546 
    103 H103       30.4855  -47.2018  -53.6492 H         1 UNK         0.0828 
    104 H104       29.5843  -45.7114  -53.4265 H         1 UNK         0.0828 
    105 H105       31.0333  -45.7214  -54.4183 H         1 UNK         0.0828 
    106 H106       31.0721  -47.4291  -56.2024 H         1 UNK         0.3005 
    107 H107       30.1255  -48.4265  -59.4802 H         1 UNK         0.1257 
    108 H108       31.1641  -46.0264  -59.5816 H         1 UNK         0.0775 
    109 H109       31.9822  -47.3500  -60.3431 H         1 UNK         0.0775 
    110 H110       34.3841  -44.5225  -58.5061 H         1 UNK         0.0840 
    111 H111       32.8657  -44.4043  -59.3471 H         1 UNK         0.0840 
    112 H112       32.4554  -48.9441  -57.9297 H         1 UNK         0.2987 
    113 H113       31.2201  -51.8275  -56.2257 H         1 UNK         0.0785 
    114 H114       31.9206  -52.6237  -58.4918 H         1 UNK         0.0798 
    115 H115       33.2028  -52.8402  -57.3133 H         1 UNK         0.0798 
    116 H116       33.2846  -51.5146  -58.4746 H         1 UNK         0.0798 
    117 H117       33.7792  -50.6320  -56.1675 H         1 UNK         0.3079 
    118 H118       34.4342  -49.7124  -54.1271 H         1 UNK         0.0794 
    119 H119       34.3856  -47.9614  -55.8993 H         1 UNK         0.0786 
    120 H120       34.8102  -47.2340  -54.3615 H         1 UNK         0.0786 
    121 H121       33.1818  -47.0432  -55.0064 H         1 UNK         0.0786 
    122 H122       32.9551  -47.7285  -52.6268 H         1 UNK         0.3032 
    123 H123       31.3939  -49.0551  -50.5680 H         1 UNK         0.1094 
    124 H124       33.9357  -50.0286  -49.1624 H         1 UNK         0.0794 
    125 H125       32.4594  -49.5239  -48.3409 H         1 UNK         0.0794 
    126 H126       32.4471  -50.9324  -49.3877 H         1 UNK         0.0794 
    127 H127       32.0738  -46.9809  -50.1952 H         1 UNK         0.3016 
@<TRIPOS>BOND
     1    1    2 1    
     2    1   67 1    
     3    1   68 1    
     4    1   69 1    
     5    2    3 2    
     6    2    4 am   BACKBONE|DICT|INTERRES
     7    4    5 1    
     8    4   70 1    
     9    5    6 1    
    10    5   65 1    
    11    5   71 1    
    12    6    7 1    
    13    6   72 1    
    14    6   73 1    
    15    7    8 1    
    16    8    9 1    
    17    8   74 1    
    18    8   75 1    
    19    9   10 ar   
    20    9   14 ar   
    21   10   11 ar   
    22   10   76 1    
    23   11   12 ar   
    24   11   48 1    
    25   12   13 ar   
    26   12   77 1    
    27   13   14 ar   
    28   13   15 1    
    29   14   78 1    
    30   15   16 1    
    31   15   79 1    
    32   15   80 1    
    33   16   17 1    
    34   17   18 1    
    35   17   81 1    
    36   17   82 1    
    37   18   19 1    
    38   18   22 1    
    39   18   83 1    
    40   19   20 am   BACKBONE|DICT|INTERRES
    41   19   21 2    
    42   20   84 1    
    43   20   85 1    
    44   22   23 am   BACKBONE|DICT|INTERRES
    45   22   86 1    
    46   23   24 2    
    47   23   25 1    
    48   25   26 1    
    49   25   27 1    
    50   25   87 1    
    51   26   88 1    
    52   26   89 1    
    53   26   90 1    
    54   27   28 am   BACKBONE|DICT|INTERRES
    55   27   91 1    
    56   28   29 2    
    57   28   30 1    
    58   30   31 1    
    59   30   32 1    
    60   30   92 1    
    61   31   93 1    
    62   31   94 1    
    63   31   95 1    
    64   32   33 am   BACKBONE|DICT|INTERRES
    65   32   96 1    
    66   33   34 2    
    67   33   35 1    
    68   35   36 1    
    69   35   37 1    
    70   35   97 1    
    71   36   98 1    
    72   36   99 1    
    73   36  100 1    
    74   37   38 am   BACKBONE|DICT|INTERRES
    75   37  101 1    
    76   38   39 2    
    77   38   40 1    
    78   40   41 1    
    79   40   42 1    
    80   40  102 1    
    81   41  103 1    
    82   41  104 1    
    83   41  105 1    
    84   42   43 am   BACKBONE|DICT|INTERRES
    85   42  106 1    
    86   43   44 2    
    87   43   45 1    
    88   45   46 1    
    89   45   49 1    
    90   45  107 1    
    91   46   47 1    
    92   46  108 1    
    93   46  109 1    
    94   47   48 1    
    95   48  110 1    
    96   48  111 1    
    97   49   50 am   BACKBONE|DICT|INTERRES
    98   49  112 1    
    99   50   51 2    
   100   50   52 1    
   101   52   53 1    
   102   52   54 1    
   103   52  113 1    
   104   53  114 1    
   105   53  115 1    
   106   53  116 1    
   107   54   55 am   BACKBONE|DICT|INTERRES
   108   54  117 1    
   109   55   56 2    
   110   55   57 1    
   111   57   58 1    
   112   57   59 1    
   113   57  118 1    
   114   58  119 1    
   115   58  120 1    
   116   58  121 1    
   117   59   60 am   BACKBONE|DICT|INTERRES
   118   59  122 1    
   119   60   61 2    
   120   60   62 1    
   121   62   63 1    
   122   62   64 1    
   123   62  123 1    
   124   63  124 1    
   125   63  125 1    
   126   63  126 1    
   127   64   65 am   BACKBONE|DICT|INTERRES
   128   64  127 1    
   129   65   66 2    
@<TRIPOS>SUBSTRUCTURE
     1 UNK         1 GROUP             0       ****    0 ROOT    
