@<TRIPOS>MOLECULE
3R134
127   129    1
SMALL
USER_CHARGES


@<TRIPOS>ATOM
      1 CA         37.5889  -42.8153  -55.3743 C.3       0 UNK        -0.1968 
      2 C          36.5841  -43.9532  -55.4750 C.2       0 UNK         0.4852 
      3 O          36.7137  -44.8092  -56.3523 O.2       0 UNK        -0.5359 
      4 N          35.5885  -43.9789  -54.5791 N.am      1 UNK        -0.4300 
      5 CA         34.5165  -44.9805  -54.5144 C.3       1 UNK         0.0863 
      6 C6         33.2537  -44.4218  -53.8107 C.3       11 UNK        -0.0953 
      7 S7         32.4624  -43.1135  -54.8026 S.3       11 UNK        -0.2369 
      8 C8         31.4581  -42.2629  -53.5495 C.3       11 UNK         0.0226 
      9 C9         30.2415  -43.0754  -53.1260 C.ar      11 UNK        -0.0699 
     10 C10        30.3017  -43.8965  -51.9960 C.ar      11 UNK        -0.0804 
     11 C11        29.1658  -44.5798  -51.5509 C.ar      11 UNK        -0.0871 
     12 C12        27.9646  -44.4444  -52.2543 C.ar      11 UNK        -0.1008 
     13 C13        27.8942  -43.6390  -53.3955 C.ar      11 UNK        -0.0735 
     14 C14        29.0377  -42.9605  -53.8294 C.ar      11 UNK        -0.0945 
     15 C15        26.5662  -43.4602  -54.1177 C.3       11 UNK         0.0169 
     16 S16        26.3472  -44.6721  -55.4555 S.3       11 UNK        -0.2669 
     17 C17        26.9022  -43.7136  -56.9087 C.3       11 UNK        -0.0850 
     18 CA         27.2265  -44.6192  -58.1360 C.3       10 UNK         0.0855 
     19 C          27.5573  -43.8279  -59.4395 C.2       10 UNK         0.5543 
     20 N          26.8940  -42.7060  -59.6900 N.am      10 UNK        -0.7343 
     21 O          28.3707  -44.2427  -60.2635 O.2       10 UNK        -0.5027 
     22 N          28.2142  -45.6581  -57.8089 N.am      10 UNK        -0.4495 
     23 C          29.4861  -45.4489  -57.4412 C.2       10 UNK         0.4903 
     24 O          30.0237  -44.3411  -57.4245 O.2       10 UNK        -0.4860 
     25 CA         30.2933  -46.6667  -56.9551 C.3       9 UNK         0.0227 
     26 CB         30.3951  -46.6184  -55.4234 C.3       9 UNK        -0.1964 
     27 N          29.7245  -47.9564  -57.3634 N.am      9 UNK        -0.4231 
     28 C          29.7828  -48.4403  -58.6124 C.2       9 UNK         0.5014 
     29 O          30.4078  -47.8960  -59.5235 O.2       9 UNK        -0.5270 
     30 CA         29.0105  -49.7387  -58.9205 C.3       8 UNK         0.0284 
     31 CB         29.9372  -50.9611  -58.8216 C.3       8 UNK        -0.1977 
     32 N          27.8174  -49.9795  -58.1017 N.am      8 UNK        -0.4342 
     33 C          26.7577  -49.1688  -57.9859 C.2       8 UNK         0.5039 
     34 O          26.6924  -48.0520  -58.5003 O.2       8 UNK        -0.5547 
     35 CA         25.5728  -49.6669  -57.1476 C.3       7 UNK         0.0281 
     36 CB         25.6960  -51.1228  -56.6457 C.3       7 UNK        -0.1963 
     37 N          25.4201  -48.7624  -56.0170 N.am      7 UNK        -0.4444 
     38 C          24.2856  -48.5104  -55.3553 C.2       7 UNK         0.5104 
     39 O          23.1962  -49.0024  -55.6552 O.2       7 UNK        -0.5100 
     40 CA         24.3900  -47.5412  -54.1574 C.3       6 UNK         0.0396 
     41 CB         23.3220  -47.8083  -53.0755 C.3       6 UNK        -0.1801 
     42 N          25.7399  -47.4830  -53.5734 N.am      6 UNK        -0.4747 
     43 C          26.4024  -48.4892  -52.9809 C.2       6 UNK         0.5012 
     44 O          25.9190  -49.6022  -52.7599 O.2       6 UNK        -0.5003 
     45 CA         27.8560  -48.1984  -52.5623 C.3       5 UNK         0.0782 
     46 C46        27.9167  -47.7899  -51.0723 C.3       11 UNK        -0.0868 
     47 S47        29.5667  -47.1683  -50.6039 S.3       11 UNK        -0.2515 
     48 C48        29.2285  -45.4094  -50.2750 C.3       11 UNK         0.0199 
     49 N          28.7151  -49.3534  -52.8391 N.am      5 UNK        -0.4607 
     50 C          29.0013  -49.8395  -54.0521 C.2       4 UNK         0.5031 
     51 O          28.6228  -49.3318  -55.1114 O.2       4 UNK        -0.5119 
     52 CA         29.8409  -51.1286  -54.0849 C.3       4 UNK         0.0263 
     53 CB         29.0468  -52.2782  -54.7261 C.3       4 UNK        -0.1967 
     54 N          31.1047  -50.9560  -54.8040 N.am      4 UNK        -0.4237 
     55 C          32.1004  -50.1484  -54.4175 C.2       3 UNK         0.4908 
     56 O          32.0694  -49.4583  -53.3953 O.2       3 UNK        -0.5102 
     57 CA         33.3427  -50.1158  -55.3191 C.3       3 UNK         0.0241 
     58 CB         33.0256  -49.5162  -56.7039 C.3       3 UNK        -0.1971 
     59 N          34.3709  -49.3149  -54.6636 N.am      3 UNK        -0.4139 
     60 C          35.6794  -49.3162  -54.9352 C.2       2 UNK         0.5016 
     61 O          36.2055  -50.0651  -55.7611 O.2       2 UNK        -0.5319 
     62 CA         36.5223  -48.2604  -54.1934 C.3       2 UNK         0.0286 
     63 CB         38.0185  -48.3287  -54.5523 C.3       2 UNK        -0.1963 
     64 N          36.0234  -46.9186  -54.5040 N.am      2 UNK        -0.4790 
     65 C          35.0093  -46.3027  -53.8850 C.2       1 UNK         0.5024 
     66 O          34.4622  -46.7613  -52.8811 O.2       1 UNK        -0.4888 
     67 H67        38.5893  -43.2126  -55.2050 H         1 UNK         0.0892 
     68 H68        37.6013  -42.2437  -56.3018 H         1 UNK         0.0892 
     69 H69        37.3521  -42.1325  -54.5586 H         1 UNK         0.0892 
     70 H70        35.5455  -43.2579  -53.8732 H         1 UNK         0.3107 
     71 H71        34.2271  -45.2344  -55.5371 H         1 UNK         0.0773 
     72 H72        32.5125  -45.2059  -53.6496 H         1 UNK         0.0680 
     73 H73        33.5062  -44.0335  -52.8226 H         1 UNK         0.0680 
     74 H74        31.1316  -41.3064  -53.9602 H         1 UNK         0.0650 
     75 H75        32.0783  -42.0216  -52.6849 H         1 UNK         0.0650 
     76 H76        31.2289  -43.9821  -51.4459 H         1 UNK         0.1397 
     77 H77        27.0750  -44.9456  -51.9004 H         1 UNK         0.1363 
     78 H78        28.9871  -42.3217  -54.7001 H         1 UNK         0.1355 
     79 H79        25.7440  -43.5761  -53.4097 H         1 UNK         0.0707 
     80 H80        26.4791  -42.4457  -54.5100 H         1 UNK         0.0707 
     81 H81        26.1064  -43.0065  -57.1447 H         1 UNK         0.1034 
     82 H82        27.7728  -43.1143  -56.6396 H         1 UNK         0.1034 
     83 H83        26.3186  -45.1724  -58.3788 H         1 UNK         0.0482 
     84 H84        26.1926  -42.3547  -59.0583 H         1 UNK         0.3460 
     85 H85        27.0925  -42.2051  -60.5421 H         1 UNK         0.3460 
     86 H86        27.8663  -46.6092  -57.8793 H         1 UNK         0.2989 
     87 H87        31.3000  -46.5814  -57.3687 H         1 UNK         0.0559 
     88 H88        29.4129  -46.7016  -54.9619 H         1 UNK         0.0848 
     89 H89        31.0278  -47.4116  -55.0288 H         1 UNK         0.0848 
     90 H90        30.8140  -45.6684  -55.0940 H         1 UNK         0.0848 
     91 H91        29.2170  -48.4809  -56.6522 H         1 UNK         0.3144 
     92 H92        28.6710  -49.6584  -59.9553 H         1 UNK         0.0727 
     93 H93        29.4575  -51.8547  -59.2214 H         1 UNK         0.0790 
     94 H94        30.2209  -51.1676  -57.7901 H         1 UNK         0.0790 
     95 H95        30.8547  -50.8077  -59.3920 H         1 UNK         0.0790 
     96 H96        27.7850  -50.8580  -57.6068 H         1 UNK         0.3215 
     97 H97        24.6902  -49.5936  -57.7867 H         1 UNK         0.0863 
     98 H98        24.7834  -51.4367  -56.1387 H         1 UNK         0.0808 
     99 H99        26.5145  -51.2387  -55.9352 H         1 UNK         0.0808 
    100 H100       25.8527  -51.8205  -57.4694 H         1 UNK         0.0808 
    101 H101       26.2653  -48.2951  -55.7182 H         1 UNK         0.3118 
    102 H102       24.1927  -46.5484  -54.5628 H         1 UNK         0.0546 
    103 H103       22.3171  -47.6858  -53.4812 H         1 UNK         0.0828 
    104 H104       23.4188  -47.1138  -52.2413 H         1 UNK         0.0828 
    105 H105       23.3872  -48.8219  -52.6794 H         1 UNK         0.0828 
    106 H106       26.2215  -46.6056  -53.7235 H         1 UNK         0.3005 
    107 H107       28.2225  -47.3643  -53.1620 H         1 UNK         0.1257 
    108 H108       27.6770  -48.6413  -50.4323 H         1 UNK         0.0775 
    109 H109       27.1669  -47.0314  -50.8426 H         1 UNK         0.0775 
    110 H110       28.3040  -45.3039  -49.7053 H         1 UNK         0.0840 
    111 H111       30.0174  -45.0256  -49.6261 H         1 UNK         0.0840 
    112 H112       29.0804  -49.8276  -52.0269 H         1 UNK         0.2987 
    113 H113       30.0811  -51.4181  -53.0595 H         1 UNK         0.0785 
    114 H114       28.0902  -52.4207  -54.2210 H         1 UNK         0.0798 
    115 H115       29.5898  -53.2211  -54.6592 H         1 UNK         0.0798 
    116 H116       28.8360  -52.0873  -55.7784 H         1 UNK         0.0798 
    117 H117       31.2128  -51.4864  -55.6551 H         1 UNK         0.3079 
    118 H118       33.7070  -51.1390  -55.4328 H         1 UNK         0.0794 
    119 H119       32.2577  -50.0875  -57.2224 H         1 UNK         0.0786 
    120 H120       33.9048  -49.5139  -57.3483 H         1 UNK         0.0786 
    121 H121       32.6730  -48.4882  -56.6236 H         1 UNK         0.0786 
    122 H122       34.0167  -48.7074  -53.9301 H         1 UNK         0.3032 
    123 H123       36.4237  -48.4537  -53.1225 H         1 UNK         0.1094 
    124 H124       38.5943  -47.5942  -53.9888 H         1 UNK         0.0794 
    125 H125       38.4319  -49.3110  -54.3197 H         1 UNK         0.0794 
    126 H126       38.1889  -48.1443  -55.6138 H         1 UNK         0.0794 
    127 H127       36.4109  -46.4598  -55.3246 H         1 UNK         0.3016 
@<TRIPOS>BOND
     1    1    2 1    
     2    1   67 1    
     3    1   68 1    
     4    1   69 1    
     5    2    3 2    
     6    2    4 am   BACKBONE|DICT|INTERRES
     7    4    5 1    
     8    4   70 1    
     9    5    6 1    
    10    5   65 1    
    11    5   71 1    
    12    6    7 1    
    13    6   72 1    
    14    6   73 1    
    15    7    8 1    
    16    8    9 1    
    17    8   74 1    
    18    8   75 1    
    19    9   10 ar   
    20    9   14 ar   
    21   10   11 ar   
    22   10   76 1    
    23   11   12 ar   
    24   11   48 1    
    25   12   13 ar   
    26   12   77 1    
    27   13   14 ar   
    28   13   15 1    
    29   14   78 1    
    30   15   16 1    
    31   15   79 1    
    32   15   80 1    
    33   16   17 1    
    34   17   18 1    
    35   17   81 1    
    36   17   82 1    
    37   18   19 1    
    38   18   22 1    
    39   18   83 1    
    40   19   20 am   BACKBONE|DICT|INTERRES
    41   19   21 2    
    42   20   84 1    
    43   20   85 1    
    44   22   23 am   BACKBONE|DICT|INTERRES
    45   22   86 1    
    46   23   24 2    
    47   23   25 1    
    48   25   26 1    
    49   25   27 1    
    50   25   87 1    
    51   26   88 1    
    52   26   89 1    
    53   26   90 1    
    54   27   28 am   BACKBONE|DICT|INTERRES
    55   27   91 1    
    56   28   29 2    
    57   28   30 1    
    58   30   31 1    
    59   30   32 1    
    60   30   92 1    
    61   31   93 1    
    62   31   94 1    
    63   31   95 1    
    64   32   33 am   BACKBONE|DICT|INTERRES
    65   32   96 1    
    66   33   34 2    
    67   33   35 1    
    68   35   36 1    
    69   35   37 1    
    70   35   97 1    
    71   36   98 1    
    72   36   99 1    
    73   36  100 1    
    74   37   38 am   BACKBONE|DICT|INTERRES
    75   37  101 1    
    76   38   39 2    
    77   38   40 1    
    78   40   41 1    
    79   40   42 1    
    80   40  102 1    
    81   41  103 1    
    82   41  104 1    
    83   41  105 1    
    84   42   43 am   BACKBONE|DICT|INTERRES
    85   42  106 1    
    86   43   44 2    
    87   43   45 1    
    88   45   46 1    
    89   45   49 1    
    90   45  107 1    
    91   46   47 1    
    92   46  108 1    
    93   46  109 1    
    94   47   48 1    
    95   48  110 1    
    96   48  111 1    
    97   49   50 am   BACKBONE|DICT|INTERRES
    98   49  112 1    
    99   50   51 2    
   100   50   52 1    
   101   52   53 1    
   102   52   54 1    
   103   52  113 1    
   104   53  114 1    
   105   53  115 1    
   106   53  116 1    
   107   54   55 am   BACKBONE|DICT|INTERRES
   108   54  117 1    
   109   55   56 2    
   110   55   57 1    
   111   57   58 1    
   112   57   59 1    
   113   57  118 1    
   114   58  119 1    
   115   58  120 1    
   116   58  121 1    
   117   59   60 am   BACKBONE|DICT|INTERRES
   118   59  122 1    
   119   60   61 2    
   120   60   62 1    
   121   62   63 1    
   122   62   64 1    
   123   62  123 1    
   124   63  124 1    
   125   63  125 1    
   126   63  126 1    
   127   64   65 am   BACKBONE|DICT|INTERRES
   128   64  127 1    
   129   65   66 2    
@<TRIPOS>SUBSTRUCTURE
     1 UNK         1 GROUP             0       ****    0 ROOT    
