@<TRIPOS>MOLECULE
3R134
127   129    1
SMALL
USER_CHARGES


@<TRIPOS>ATOM
      1 CA         32.0533  -46.7335  -56.6712 C.3       0 UNK        -0.1968 
      2 C          32.8721  -46.5296  -55.4068 C.2       0 UNK         0.4852 
      3 O          32.6326  -47.2076  -54.4077 O.2       0 UNK        -0.5359 
      4 N          33.8474  -45.6107  -55.4436 N.am      1 UNK        -0.4300 
      5 CA         34.6555  -45.2025  -54.2862 C.3       1 UNK         0.0863 
      6 C6         35.4780  -43.9195  -54.5838 C.3       11 UNK        -0.0953 
      7 S7         35.5689  -42.8165  -53.1327 S.3       11 UNK        -0.2369 
      8 C8         34.2030  -41.6507  -53.4575 C.3       11 UNK         0.0226 
      9 C9         32.8616  -42.3573  -53.6104 C.ar      11 UNK        -0.0699 
     10 C10        32.2647  -42.9826  -52.5117 C.ar      11 UNK        -0.0804 
     11 C11        31.0539  -43.6655  -52.6573 C.ar      11 UNK        -0.0871 
     12 C12        30.4306  -43.6953  -53.9057 C.ar      11 UNK        -0.1008 
     13 C13        31.0139  -43.0793  -55.0206 C.ar      11 UNK        -0.0735 
     14 C14        32.2287  -42.4060  -54.8568 C.ar      11 UNK        -0.0945 
     15 C15        30.3867  -43.1207  -56.4169 C.3       11 UNK         0.0169 
     16 S16        29.0369  -44.3310  -56.6402 S.3       11 UNK        -0.2669 
     17 C17        27.6123  -43.4415  -55.9111 C.3       11 UNK        -0.0850 
     18 CA         26.3458  -43.4522  -56.8056 C.3       10 UNK         0.0855 
     19 C          26.5379  -42.6259  -58.1116 C.2       10 UNK         0.5543 
     20 N          26.4576  -41.3050  -58.0175 N.am      10 UNK        -0.7343 
     21 O          26.7885  -43.1558  -59.1922 O.2       10 UNK        -0.5027 
     22 N          25.8702  -44.8276  -57.0062 N.am      10 UNK        -0.4495 
     23 C          24.7346  -45.1919  -57.6135 C.2       10 UNK         0.4903 
     24 O          23.8991  -44.3969  -58.0482 O.2       10 UNK        -0.4860 
     25 CA         24.4795  -46.7082  -57.7088 C.3       9 UNK         0.0227 
     26 CB         23.3806  -47.0833  -58.7258 C.3       9 UNK        -0.1964 
     27 N          25.7082  -47.4764  -57.9377 N.am      9 UNK        -0.4231 
     28 C          26.5005  -47.4737  -59.0212 C.2       9 UNK         0.5014 
     29 O          26.2782  -46.8238  -60.0431 O.2       9 UNK        -0.5270 
     30 CA         27.7626  -48.3568  -58.9582 C.3       8 UNK         0.0284 
     31 CB         28.9959  -47.5069  -58.6203 C.3       8 UNK        -0.1977 
     32 N          27.6573  -49.4399  -57.9779 N.am      8 UNK        -0.4342 
     33 C          26.8811  -50.5236  -58.1139 C.2       8 UNK         0.5039 
     34 O          26.2490  -50.7946  -59.1354 O.2       8 UNK        -0.5547 
     35 CA         26.7539  -51.4303  -56.8802 C.3       7 UNK         0.0281 
     36 CB         27.9550  -52.3826  -56.7644 C.3       7 UNK        -0.1963 
     37 N          26.6134  -50.6488  -55.6477 N.am      7 UNK        -0.4444 
     38 C          25.5008  -49.9898  -55.2937 C.2       7 UNK         0.5104 
     39 O          24.4596  -50.0042  -55.9492 O.2       7 UNK        -0.5100 
     40 CA         25.5525  -49.1637  -53.9978 C.3       6 UNK         0.0396 
     41 CB         25.0213  -49.9897  -52.8159 C.3       6 UNK        -0.1801 
     42 N          26.8937  -48.6699  -53.6781 N.am      6 UNK        -0.4747 
     43 C          27.4919  -47.6362  -54.2883 C.2       6 UNK         0.5012 
     44 O          26.9880  -46.9981  -55.2138 O.2       6 UNK        -0.5003 
     45 CA         28.9096  -47.2894  -53.7898 C.3       5 UNK         0.0782 
     46 C46        28.8283  -46.5542  -52.4238 C.3       11 UNK        -0.0868 
     47 S47        30.4559  -46.1911  -51.6680 S.3       11 UNK        -0.2515 
     48 C48        30.4204  -44.3776  -51.4705 C.3       11 UNK         0.0199 
     49 N          29.7962  -48.4585  -53.7321 N.am      5 UNK        -0.4607 
     50 C          30.0560  -49.3234  -54.7234 C.2       4 UNK         0.5031 
     51 O          29.4623  -49.3236  -55.8022 O.2       4 UNK        -0.5119 
     52 CA         31.1675  -50.3555  -54.4695 C.3       4 UNK         0.0263 
     53 CB         31.8870  -50.7770  -55.7648 C.3       4 UNK        -0.1967 
     54 N          32.1582  -49.8318  -53.5274 N.am      4 UNK        -0.4237 
     55 C          32.6446  -50.4893  -52.4681 C.2       3 UNK         0.4908 
     56 O          32.2826  -51.6226  -52.1445 O.2       3 UNK        -0.5102 
     57 CA         33.7099  -49.7522  -51.6295 C.3       3 UNK         0.0241 
     58 CB         34.3901  -50.6635  -50.5854 C.3       3 UNK        -0.1971 
     59 N          34.7211  -49.0617  -52.4405 N.am      3 UNK        -0.4139 
     60 C          35.5414  -49.5833  -53.3661 C.2       2 UNK         0.5016 
     61 O          35.5568  -50.7766  -53.6735 O.2       2 UNK        -0.5319 
     62 CA         36.5051  -48.5987  -54.0702 C.3       2 UNK         0.0286 
     63 CB         37.1983  -49.2241  -55.2958 C.3       2 UNK        -0.1963 
     64 N          35.8379  -47.3616  -54.4908 N.am      2 UNK        -0.4790 
     65 C          35.5243  -46.3328  -53.6902 C.2       1 UNK         0.5024 
     66 O          35.8412  -46.2932  -52.5008 O.2       1 UNK        -0.4888 
     67 H67        32.2000  -45.9251  -57.3870 H         1 UNK         0.0892 
     68 H68        32.3219  -47.6730  -57.1517 H         1 UNK         0.0892 
     69 H69        30.9944  -46.7699  -56.4210 H         1 UNK         0.0892 
     70 H70        34.0146  -45.1008  -56.2988 H         1 UNK         0.3107 
     71 H71        33.9246  -44.9716  -53.5094 H         1 UNK         0.0773 
     72 H72        35.0343  -43.3521  -55.4033 H         1 UNK         0.0680 
     73 H73        36.4906  -44.1580  -54.9149 H         1 UNK         0.0680 
     74 H74        34.1424  -40.9398  -52.6324 H         1 UNK         0.0650 
     75 H75        34.4391  -41.0665  -54.3482 H         1 UNK         0.0650 
     76 H76        32.7597  -42.9559  -51.5505 H         1 UNK         0.1397 
     77 H77        29.4960  -44.2229  -53.9958 H         1 UNK         0.1363 
     78 H78        32.6918  -41.9287  -55.7098 H         1 UNK         0.1355 
     79 H79        30.0328  -42.1246  -56.6861 H         1 UNK         0.0707 
     80 H80        31.1659  -43.3716  -57.1380 H         1 UNK         0.0707 
     81 H81        27.3764  -43.9082  -54.9537 H         1 UNK         0.1034 
     82 H82        27.8954  -42.4157  -55.6691 H         1 UNK         0.1034 
     83 H83        25.5537  -42.9539  -56.2433 H         1 UNK         0.0482 
     84 H84        26.5905  -40.7477  -58.8469 H         1 UNK         0.3460 
     85 H85        26.2558  -40.8533  -57.1392 H         1 UNK         0.3460 
     86 H86        26.4804  -45.5570  -56.6551 H         1 UNK         0.2989 
     87 H87        24.1245  -47.0122  -56.7230 H         1 UNK         0.0559 
     88 H88        22.4274  -46.6270  -58.4563 H         1 UNK         0.0848 
     89 H89        23.2245  -48.1616  -58.7595 H         1 UNK         0.0848 
     90 H90        23.6265  -46.7466  -59.7332 H         1 UNK         0.0848 
     91 H91        26.0311  -48.0106  -57.1425 H         1 UNK         0.3144 
     92 H92        27.9072  -48.7981  -59.9465 H         1 UNK         0.0727 
     93 H93        28.9228  -47.0943  -57.6142 H         1 UNK         0.0790 
     94 H94        29.1031  -46.6700  -59.3118 H         1 UNK         0.0790 
     95 H95        29.9114  -48.0961  -58.6734 H         1 UNK         0.0790 
     96 H96        28.2092  -49.3390  -57.1259 H         1 UNK         0.3215 
     97 H97        25.8542  -52.0373  -57.0053 H         1 UNK         0.0863 
     98 H98        27.8408  -53.0651  -55.9222 H         1 UNK         0.0808 
     99 H99        28.8919  -51.8423  -56.6342 H         1 UNK         0.0808 
    100 H100       28.0544  -52.9922  -57.6635 H         1 UNK         0.0808 
    101 H101       27.4384  -50.5392  -55.0762 H         1 UNK         0.3118 
    102 H102       24.8932  -48.3028  -54.1307 H         1 UNK         0.0546 
    103 H103       25.6431  -50.8640  -52.6192 H         1 UNK         0.0828 
    104 H104       24.0100  -50.3480  -53.0142 H         1 UNK         0.0828 
    105 H105       24.9780  -49.3951  -51.9033 H         1 UNK         0.0828 
    106 H106       27.3922  -49.1432  -52.9377 H         1 UNK         0.3005 
    107 H107       29.3469  -46.6075  -54.5215 H         1 UNK         0.1257 
    108 H108       28.2575  -45.6305  -52.5311 H         1 UNK         0.0775 
    109 H109       28.2771  -47.1562  -51.6988 H         1 UNK         0.0775 
    110 H110       29.3991  -44.0242  -51.3235 H         1 UNK         0.0840 
    111 H111       30.9558  -44.1275  -50.5534 H         1 UNK         0.0840 
    112 H112       30.3581  -48.5229  -52.8958 H         1 UNK         0.2987 
    113 H113       30.6722  -51.2337  -54.0510 H         1 UNK         0.0785 
    114 H114       31.1926  -51.2023  -56.4895 H         1 UNK         0.0798 
    115 H115       32.6464  -51.5330  -55.5641 H         1 UNK         0.0798 
    116 H116       32.3799  -49.9297  -56.2411 H         1 UNK         0.0798 
    117 H117       32.4786  -48.8814  -53.7235 H         1 UNK         0.3079 
    118 H118       33.1743  -48.9724  -51.0857 H         1 UNK         0.0794 
    119 H119       35.1083  -50.1083  -49.9822 H         1 UNK         0.0786 
    120 H120       34.9183  -51.4931  -51.0568 H         1 UNK         0.0786 
    121 H121       33.6568  -51.0912  -49.9005 H         1 UNK         0.0786 
    122 H122       34.8051  -48.0640  -52.2792 H         1 UNK         0.3032 
    123 H123       37.2813  -48.3485  -53.3432 H         1 UNK         0.1094 
    124 H124       36.4768  -49.5284  -56.0551 H         1 UNK         0.0794 
    125 H125       37.8976  -48.5259  -55.7562 H         1 UNK         0.0794 
    126 H126       37.7695  -50.1098  -55.0141 H         1 UNK         0.0794 
    127 H127       35.4966  -47.3358  -55.4408 H         1 UNK         0.3016 
@<TRIPOS>BOND
     1    1    2 1    
     2    1   67 1    
     3    1   68 1    
     4    1   69 1    
     5    2    3 2    
     6    2    4 am   BACKBONE|DICT|INTERRES
     7    4    5 1    
     8    4   70 1    
     9    5    6 1    
    10    5   65 1    
    11    5   71 1    
    12    6    7 1    
    13    6   72 1    
    14    6   73 1    
    15    7    8 1    
    16    8    9 1    
    17    8   74 1    
    18    8   75 1    
    19    9   10 ar   
    20    9   14 ar   
    21   10   11 ar   
    22   10   76 1    
    23   11   12 ar   
    24   11   48 1    
    25   12   13 ar   
    26   12   77 1    
    27   13   14 ar   
    28   13   15 1    
    29   14   78 1    
    30   15   16 1    
    31   15   79 1    
    32   15   80 1    
    33   16   17 1    
    34   17   18 1    
    35   17   81 1    
    36   17   82 1    
    37   18   19 1    
    38   18   22 1    
    39   18   83 1    
    40   19   20 am   BACKBONE|DICT|INTERRES
    41   19   21 2    
    42   20   84 1    
    43   20   85 1    
    44   22   23 am   BACKBONE|DICT|INTERRES
    45   22   86 1    
    46   23   24 2    
    47   23   25 1    
    48   25   26 1    
    49   25   27 1    
    50   25   87 1    
    51   26   88 1    
    52   26   89 1    
    53   26   90 1    
    54   27   28 am   BACKBONE|DICT|INTERRES
    55   27   91 1    
    56   28   29 2    
    57   28   30 1    
    58   30   31 1    
    59   30   32 1    
    60   30   92 1    
    61   31   93 1    
    62   31   94 1    
    63   31   95 1    
    64   32   33 am   BACKBONE|DICT|INTERRES
    65   32   96 1    
    66   33   34 2    
    67   33   35 1    
    68   35   36 1    
    69   35   37 1    
    70   35   97 1    
    71   36   98 1    
    72   36   99 1    
    73   36  100 1    
    74   37   38 am   BACKBONE|DICT|INTERRES
    75   37  101 1    
    76   38   39 2    
    77   38   40 1    
    78   40   41 1    
    79   40   42 1    
    80   40  102 1    
    81   41  103 1    
    82   41  104 1    
    83   41  105 1    
    84   42   43 am   BACKBONE|DICT|INTERRES
    85   42  106 1    
    86   43   44 2    
    87   43   45 1    
    88   45   46 1    
    89   45   49 1    
    90   45  107 1    
    91   46   47 1    
    92   46  108 1    
    93   46  109 1    
    94   47   48 1    
    95   48  110 1    
    96   48  111 1    
    97   49   50 am   BACKBONE|DICT|INTERRES
    98   49  112 1    
    99   50   51 2    
   100   50   52 1    
   101   52   53 1    
   102   52   54 1    
   103   52  113 1    
   104   53  114 1    
   105   53  115 1    
   106   53  116 1    
   107   54   55 am   BACKBONE|DICT|INTERRES
   108   54  117 1    
   109   55   56 2    
   110   55   57 1    
   111   57   58 1    
   112   57   59 1    
   113   57  118 1    
   114   58  119 1    
   115   58  120 1    
   116   58  121 1    
   117   59   60 am   BACKBONE|DICT|INTERRES
   118   59  122 1    
   119   60   61 2    
   120   60   62 1    
   121   62   63 1    
   122   62   64 1    
   123   62  123 1    
   124   63  124 1    
   125   63  125 1    
   126   63  126 1    
   127   64   65 am   BACKBONE|DICT|INTERRES
   128   64  127 1    
   129   65   66 2    
@<TRIPOS>SUBSTRUCTURE
     1 UNK         1 GROUP             0       ****    0 ROOT    
