@<TRIPOS>MOLECULE
3R134
127   129    1
SMALL
USER_CHARGES


@<TRIPOS>ATOM
      1 CA         36.3679  -44.0931  -50.9250 C.3       0 UNK        -0.1968 
      2 C          36.6568  -44.7863  -52.2486 C.2       0 UNK         0.4852 
      3 O          37.8202  -45.0430  -52.5639 O.2       0 UNK        -0.5359 
      4 N          35.6082  -45.0820  -53.0262 N.am      1 UNK        -0.4300 
      5 CA         35.6780  -45.8183  -54.2909 C.3       1 UNK         0.0863 
      6 C6         34.4666  -45.5126  -55.2130 C.3       11 UNK        -0.0953 
      7 S7         32.8228  -45.6339  -54.4174 S.3       11 UNK        -0.2369 
      8 C8         32.4347  -43.8651  -54.2210 C.3       11 UNK         0.0226 
      9 C9         30.9821  -43.6337  -53.8372 C.ar      11 UNK        -0.0699 
     10 C10        30.5899  -43.6344  -52.4958 C.ar      11 UNK        -0.0804 
     11 C11        29.2600  -43.3755  -52.1455 C.ar      11 UNK        -0.0871 
     12 C12        28.3218  -43.1057  -53.1475 C.ar      11 UNK        -0.1008 
     13 C13        28.7023  -43.1172  -54.4925 C.ar      11 UNK        -0.0735 
     14 C14        30.0323  -43.3793  -54.8292 C.ar      11 UNK        -0.0945 
     15 C15        27.6869  -42.8371  -55.5877 C.3       11 UNK         0.0169 
     16 S16        26.5621  -44.2470  -55.8145 S.3       11 UNK        -0.2669 
     17 C17        25.9840  -43.9744  -57.5265 C.3       11 UNK        -0.0850 
     18 CA         26.1011  -45.2433  -58.4225 C.3       10 UNK         0.0855 
     19 C          25.5673  -45.0073  -59.8675 C.2       10 UNK         0.5543 
     20 N          26.1480  -45.6131  -60.8971 N.am      10 UNK        -0.7343 
     21 O          24.5923  -44.2846  -60.0597 O.2       10 UNK        -0.5027 
     22 N          27.4144  -45.9085  -58.3665 N.am      10 UNK        -0.4495 
     23 C          28.6034  -45.3734  -58.6795 C.2       10 UNK         0.4903 
     24 O          28.7623  -44.2002  -59.0170 O.2       10 UNK        -0.4860 
     25 CA         29.8351  -46.2998  -58.6203 C.3       9 UNK         0.0227 
     26 CB         30.6806  -45.9978  -57.3736 C.3       9 UNK        -0.1964 
     27 N          29.5006  -47.7270  -58.6442 N.am      9 UNK        -0.4231 
     28 C          29.0473  -48.3841  -59.7215 C.2       9 UNK         0.5014 
     29 O          28.9224  -47.8689  -60.8335 O.2       9 UNK        -0.5270 
     30 CA         28.6251  -49.8534  -59.5221 C.3       8 UNK         0.0284 
     31 CB         29.7922  -50.7961  -59.8585 C.3       8 UNK        -0.1977 
     32 N          28.1089  -50.1766  -58.1836 N.am      8 UNK        -0.4342 
     33 C          27.0696  -49.5761  -57.5850 C.2       8 UNK         0.5039 
     34 O          26.4626  -48.6283  -58.0872 O.2       8 UNK        -0.5547 
     35 CA         26.6401  -50.1001  -56.2017 C.3       7 UNK         0.0281 
     36 CB         27.7409  -50.8850  -55.4607 C.3       7 UNK        -0.1963 
     37 N          26.2058  -48.9709  -55.3765 N.am      7 UNK        -0.4444 
     38 C          24.9311  -48.5830  -55.2218 C.2       7 UNK         0.5104 
     39 O          23.9690  -49.2290  -55.6418 O.2       7 UNK        -0.5100 
     40 CA         24.6733  -47.2343  -54.5143 C.3       6 UNK         0.0396 
     41 CB         23.3964  -47.2527  -53.6468 C.3       6 UNK        -0.1801 
     42 N          25.8225  -46.7104  -53.7641 N.am      6 UNK        -0.4747 
     43 C          26.3828  -47.2382  -52.6673 C.2       6 UNK         0.5012 
     44 O          25.9637  -48.2448  -52.0915 O.2       6 UNK        -0.5003 
     45 CA         27.6478  -46.5381  -52.1335 C.3       5 UNK         0.0782 
     46 C46        27.3421  -45.7945  -50.8073 C.3       11 UNK        -0.0868 
     47 S47        28.8184  -45.0767  -50.0068 S.3       11 UNK        -0.2515 
     48 C48        28.8427  -43.3867  -50.6828 C.3       11 UNK         0.0199 
     49 N          28.7379  -47.5059  -52.0037 N.am      5 UNK        -0.4607 
     50 C          29.3031  -48.1495  -53.0299 C.2       4 UNK         0.5031 
     51 O          28.9895  -47.9769  -54.2135 O.2       4 UNK        -0.5119 
     52 CA         30.3796  -49.1765  -52.6669 C.3       4 UNK         0.0263 
     53 CB         29.7538  -50.4356  -52.0331 C.3       4 UNK        -0.1967 
     54 N          31.1009  -49.5195  -53.8859 N.am      4 UNK        -0.4237 
     55 C          32.2809  -50.1414  -53.9618 C.2       3 UNK         0.4908 
     56 O          32.8965  -50.5451  -52.9737 O.2       3 UNK        -0.5102 
     57 CA         32.8759  -50.3566  -55.3686 C.3       3 UNK         0.0241 
     58 CB         32.0107  -49.7933  -56.5170 C.3       3 UNK        -0.1971 
     59 N          34.2027  -49.7476  -55.4341 N.am      3 UNK        -0.4139 
     60 C          35.3520  -50.3463  -55.0939 C.2       2 UNK         0.5016 
     61 O          35.4480  -51.5407  -54.8064 O.2       2 UNK        -0.5319 
     62 CA         36.6222  -49.4726  -55.0844 C.3       2 UNK         0.0286 
     63 CB         37.5228  -49.8191  -56.2822 C.3       2 UNK        -0.1963 
     64 N          36.3611  -48.0272  -55.0899 N.am      2 UNK        -0.4790 
     65 C          35.8680  -47.3312  -54.0549 C.2       1 UNK         0.5024 
     66 O          35.5593  -47.8409  -52.9751 O.2       1 UNK        -0.4888 
     67 H67        35.3027  -43.9102  -50.7839 H         1 UNK         0.0892 
     68 H68        36.7189  -44.7071  -50.0961 H         1 UNK         0.0892 
     69 H69        36.8845  -43.1346  -50.8825 H         1 UNK         0.0892 
     70 H70        34.6727  -44.8991  -52.6942 H         1 UNK         0.3107 
     71 H71        36.5721  -45.4754  -54.8171 H         1 UNK         0.0773 
     72 H72        34.4661  -46.1648  -56.0881 H         1 UNK         0.0680 
     73 H73        34.5873  -44.5083  -55.6212 H         1 UNK         0.0680 
     74 H74        32.6477  -43.3408  -55.1539 H         1 UNK         0.0650 
     75 H75        33.0937  -43.4293  -53.4690 H         1 UNK         0.0650 
     76 H76        31.3187  -43.8370  -51.7228 H         1 UNK         0.1397 
     77 H77        27.2922  -42.9015  -52.8863 H         1 UNK         0.1363 
     78 H78        30.3317  -43.3709  -55.8672 H         1 UNK         0.1355 
     79 H79        28.2037  -42.6224  -56.5245 H         1 UNK         0.0707 
     80 H80        27.1074  -41.9463  -55.3412 H         1 UNK         0.0707 
     81 H81        24.9435  -43.6495  -57.4718 H         1 UNK         0.1034 
     82 H82        26.5258  -43.1442  -57.9814 H         1 UNK         0.1034 
     83 H83        25.4132  -45.9784  -58.0032 H         1 UNK         0.0482 
     84 H84        26.9417  -46.2194  -60.7517 H         1 UNK         0.3460 
     85 H85        25.7895  -45.4627  -61.8267 H         1 UNK         0.3460 
     86 H86        27.3600  -46.9015  -58.1606 H         1 UNK         0.2989 
     87 H87        30.4456  -46.0820  -59.4992 H         1 UNK         0.0559 
     88 H88        30.1309  -46.1843  -56.4492 H         1 UNK         0.0848 
     89 H89        30.9930  -44.9538  -57.3655 H         1 UNK         0.0848 
     90 H90        31.5923  -46.5933  -57.3556 H         1 UNK         0.0848 
     91 H91        29.5464  -48.2226  -57.7670 H         1 UNK         0.3144 
     92 H92        27.8172  -50.0493  -60.2302 H         1 UNK         0.0727 
     93 H93        30.1764  -50.5987  -60.8605 H         1 UNK         0.0790 
     94 H94        29.4805  -51.8405  -59.8356 H         1 UNK         0.0790 
     95 H95        30.6235  -50.6768  -59.1632 H         1 UNK         0.0790 
     96 H96        28.5439  -50.9551  -57.7103 H         1 UNK         0.3215 
     97 H97        25.8047  -50.7830  -56.3692 H         1 UNK         0.0863 
     98 H98        28.6648  -50.3151  -55.3729 H         1 UNK         0.0808 
     99 H99        27.9731  -51.8225  -55.9670 H         1 UNK         0.0808 
    100 H100       27.4161  -51.1471  -54.4538 H         1 UNK         0.0808 
    101 H101       26.9397  -48.3728  -55.0157 H         1 UNK         0.3118 
    102 H102       24.5018  -46.5175  -55.3184 H         1 UNK         0.0546 
    103 H103       23.4438  -48.0136  -52.8677 H         1 UNK         0.0828 
    104 H104       22.5155  -47.4679  -54.2527 H         1 UNK         0.0828 
    105 H105       23.2279  -46.2888  -53.1670 H         1 UNK         0.0828 
    106 H106       26.2535  -45.8931  -54.1817 H         1 UNK         0.3005 
    107 H107       27.9720  -45.8047  -52.8736 H         1 UNK         0.1257 
    108 H108       26.8891  -46.4774  -50.0856 H         1 UNK         0.0775 
    109 H109       26.6064  -45.0055  -50.9745 H         1 UNK         0.0775 
    110 H110       27.8658  -42.9202  -50.5462 H         1 UNK         0.0840 
    111 H111       29.5481  -42.7872  -50.1055 H         1 UNK         0.0840 
    112 H112       29.0380  -47.7080  -51.0616 H         1 UNK         0.2987 
    113 H113       31.0750  -48.7120  -51.9644 H         1 UNK         0.0785 
    114 H114       29.1809  -50.1868  -51.1391 H         1 UNK         0.0798 
    115 H115       30.5165  -51.1536  -51.7318 H         1 UNK         0.0798 
    116 H116       29.0775  -50.9396  -52.7230 H         1 UNK         0.0798 
    117 H117       30.6615  -49.1566  -54.7226 H         1 UNK         0.3079 
    118 H118       32.9626  -51.4352  -55.5162 H         1 UNK         0.0794 
    119 H119       31.0333  -50.2759  -56.5504 H         1 UNK         0.0786 
    120 H120       32.4832  -49.9717  -57.4833 H         1 UNK         0.0786 
    121 H121       31.8569  -48.7187  -56.4216 H         1 UNK         0.0786 
    122 H122       34.2353  -48.7579  -55.6260 H         1 UNK         0.3032 
    123 H123       37.1645  -49.7148  -54.1672 H         1 UNK         0.1094 
    124 H124       37.7698  -50.8818  -56.2912 H         1 UNK         0.0794 
    125 H125       37.0380  -49.5902  -57.2320 H         1 UNK         0.0794 
    126 H126       38.4649  -49.2718  -56.2432 H         1 UNK         0.0794 
    127 H127       36.5943  -47.5343  -55.9409 H         1 UNK         0.3016 
@<TRIPOS>BOND
     1    1    2 1    
     2    1   67 1    
     3    1   68 1    
     4    1   69 1    
     5    2    3 2    
     6    2    4 am   BACKBONE|DICT|INTERRES
     7    4    5 1    
     8    4   70 1    
     9    5    6 1    
    10    5   65 1    
    11    5   71 1    
    12    6    7 1    
    13    6   72 1    
    14    6   73 1    
    15    7    8 1    
    16    8    9 1    
    17    8   74 1    
    18    8   75 1    
    19    9   10 ar   
    20    9   14 ar   
    21   10   11 ar   
    22   10   76 1    
    23   11   12 ar   
    24   11   48 1    
    25   12   13 ar   
    26   12   77 1    
    27   13   14 ar   
    28   13   15 1    
    29   14   78 1    
    30   15   16 1    
    31   15   79 1    
    32   15   80 1    
    33   16   17 1    
    34   17   18 1    
    35   17   81 1    
    36   17   82 1    
    37   18   19 1    
    38   18   22 1    
    39   18   83 1    
    40   19   20 am   BACKBONE|DICT|INTERRES
    41   19   21 2    
    42   20   84 1    
    43   20   85 1    
    44   22   23 am   BACKBONE|DICT|INTERRES
    45   22   86 1    
    46   23   24 2    
    47   23   25 1    
    48   25   26 1    
    49   25   27 1    
    50   25   87 1    
    51   26   88 1    
    52   26   89 1    
    53   26   90 1    
    54   27   28 am   BACKBONE|DICT|INTERRES
    55   27   91 1    
    56   28   29 2    
    57   28   30 1    
    58   30   31 1    
    59   30   32 1    
    60   30   92 1    
    61   31   93 1    
    62   31   94 1    
    63   31   95 1    
    64   32   33 am   BACKBONE|DICT|INTERRES
    65   32   96 1    
    66   33   34 2    
    67   33   35 1    
    68   35   36 1    
    69   35   37 1    
    70   35   97 1    
    71   36   98 1    
    72   36   99 1    
    73   36  100 1    
    74   37   38 am   BACKBONE|DICT|INTERRES
    75   37  101 1    
    76   38   39 2    
    77   38   40 1    
    78   40   41 1    
    79   40   42 1    
    80   40  102 1    
    81   41  103 1    
    82   41  104 1    
    83   41  105 1    
    84   42   43 am   BACKBONE|DICT|INTERRES
    85   42  106 1    
    86   43   44 2    
    87   43   45 1    
    88   45   46 1    
    89   45   49 1    
    90   45  107 1    
    91   46   47 1    
    92   46  108 1    
    93   46  109 1    
    94   47   48 1    
    95   48  110 1    
    96   48  111 1    
    97   49   50 am   BACKBONE|DICT|INTERRES
    98   49  112 1    
    99   50   51 2    
   100   50   52 1    
   101   52   53 1    
   102   52   54 1    
   103   52  113 1    
   104   53  114 1    
   105   53  115 1    
   106   53  116 1    
   107   54   55 am   BACKBONE|DICT|INTERRES
   108   54  117 1    
   109   55   56 2    
   110   55   57 1    
   111   57   58 1    
   112   57   59 1    
   113   57  118 1    
   114   58  119 1    
   115   58  120 1    
   116   58  121 1    
   117   59   60 am   BACKBONE|DICT|INTERRES
   118   59  122 1    
   119   60   61 2    
   120   60   62 1    
   121   62   63 1    
   122   62   64 1    
   123   62  123 1    
   124   63  124 1    
   125   63  125 1    
   126   63  126 1    
   127   64   65 am   BACKBONE|DICT|INTERRES
   128   64  127 1    
   129   65   66 2    
@<TRIPOS>SUBSTRUCTURE
     1 UNK         1 GROUP             0       ****    0 ROOT    
