@<TRIPOS>MOLECULE
3R134
127   129    1
SMALL
USER_CHARGES


@<TRIPOS>ATOM
      1 CA         35.4615  -49.1624  -59.8112 C.3       0 UNK        -0.1968 
      2 C          34.6901  -49.4866  -58.5403 C.2       0 UNK         0.4852 
      3 O          34.7623  -50.6161  -58.0546 O.2       0 UNK        -0.5359 
      4 N          33.9495  -48.5059  -58.0071 N.am      1 UNK        -0.4300 
      5 CA         33.1722  -48.6002  -56.7661 C.3       1 UNK         0.0863 
      6 C6         32.1705  -47.4231  -56.5879 C.3       11 UNK        -0.0953 
      7 S7         32.8005  -45.7935  -57.1322 S.3       11 UNK        -0.2369 
      8 C8         33.2088  -44.9630  -55.5611 C.3       11 UNK         0.0226 
      9 C9         32.0147  -44.4839  -54.7377 C.ar      11 UNK        -0.0699 
     10 C10        32.1546  -44.4021  -53.3490 C.ar      11 UNK        -0.0804 
     11 C11        31.1150  -43.9190  -52.5511 C.ar      11 UNK        -0.0871 
     12 C12        29.9216  -43.5108  -53.1514 C.ar      11 UNK        -0.1008 
     13 C13        29.7607  -43.5927  -54.5368 C.ar      11 UNK        -0.0735 
     14 C14        30.8107  -44.0728  -55.3267 C.ar      11 UNK        -0.0945 
     15 C15        28.4501  -43.1508  -55.1672 C.3       11 UNK         0.0169 
     16 S16        27.2308  -44.4999  -55.1338 S.3       11 UNK        -0.2669 
     17 C17        25.6551  -43.5756  -55.2602 C.3       11 UNK        -0.0850 
     18 CA         25.0600  -43.5193  -56.6927 C.3       10 UNK         0.0855 
     19 C          25.7836  -42.4697  -57.5900 C.2       10 UNK         0.5543 
     20 N          26.3421  -42.8281  -58.7405 N.am      10 UNK        -0.7343 
     21 O          25.8297  -41.2948  -57.2341 O.2       10 UNK        -0.5027 
     22 N          24.9547  -44.8661  -57.2641 N.am      10 UNK        -0.4495 
     23 C          24.1663  -45.2408  -58.2773 C.2       10 UNK         0.4903 
     24 O          23.3042  -44.5212  -58.7835 O.2       10 UNK        -0.4860 
     25 CA         24.4235  -46.6612  -58.8209 C.3       9 UNK         0.0227 
     26 CB         23.8352  -46.8872  -60.2299 C.3       9 UNK        -0.1964 
     27 N          25.8504  -47.0186  -58.7726 N.am      9 UNK        -0.4231 
     28 C          26.8606  -46.3902  -59.4002 C.2       9 UNK         0.5014 
     29 O          26.6889  -45.4570  -60.1856 O.2       9 UNK        -0.5270 
     30 CA         28.3073  -46.8022  -59.0573 C.3       8 UNK         0.0284 
     31 CB         29.1258  -45.5762  -58.6148 C.3       8 UNK        -0.1977 
     32 N          28.3932  -47.8237  -58.0111 N.am      8 UNK        -0.4342 
     33 C          28.2332  -49.1388  -58.2054 C.2       8 UNK         0.5039 
     34 O          28.0730  -49.6509  -59.3134 O.2       8 UNK        -0.5547 
     35 CA         28.2088  -50.0333  -56.9521 C.3       7 UNK         0.0281 
     36 CB         29.5714  -50.7132  -56.7467 C.3       7 UNK        -0.1963 
     37 N          27.8276  -49.3444  -55.7118 N.am      7 UNK        -0.4444 
     38 C          26.6364  -48.7638  -55.4817 C.2       7 UNK         0.5104 
     39 O          25.7533  -48.6752  -56.3346 O.2       7 UNK        -0.5100 
     40 CA         26.3847  -48.1640  -54.0892 C.3       6 UNK         0.0396 
     41 CB         25.6051  -49.1676  -53.2177 C.3       6 UNK        -0.1801 
     42 N          27.6423  -47.7792  -53.4526 N.am      6 UNK        -0.4747 
     43 C          27.8209  -47.0850  -52.3267 C.2       6 UNK         0.5012 
     44 O          26.8977  -46.6679  -51.6249 O.2       6 UNK        -0.5003 
     45 CA         29.2942  -46.8380  -51.9216 C.3       5 UNK         0.0782 
     46 C46        29.4124  -45.9365  -50.6638 C.3       11 UNK        -0.0868 
     47 S47        31.1407  -45.4964  -50.2745 S.3       11 UNK        -0.2515 
     48 C48        31.2810  -43.8504  -51.0404 C.3       11 UNK         0.0199 
     49 N          30.0567  -48.0850  -51.7623 N.am      5 UNK        -0.4607 
     50 C          30.4333  -48.9319  -52.7277 C.2       4 UNK         0.5031 
     51 O          30.1511  -48.7867  -53.9206 O.2       4 UNK        -0.5119 
     52 CA         31.2704  -50.1356  -52.2742 C.3       4 UNK         0.0263 
     53 CB         31.2279  -51.2946  -53.2876 C.3       4 UNK        -0.1967 
     54 N          32.6568  -49.7211  -52.0534 N.am      4 UNK        -0.4237 
     55 C          33.1131  -49.1899  -50.9087 C.2       3 UNK         0.4908 
     56 O          32.3975  -49.0149  -49.9209 O.2       3 UNK        -0.5102 
     57 CA         34.6039  -48.8103  -50.8122 C.3       3 UNK         0.0241 
     58 CB         35.3386  -49.7724  -49.8628 C.3       3 UNK        -0.1971 
     59 N          35.2962  -48.8077  -52.1026 N.am      3 UNK        -0.4139 
     60 C          35.3602  -47.7609  -52.9356 C.2       2 UNK         0.5016 
     61 O          34.8647  -46.6608  -52.6918 O.2       2 UNK        -0.5319 
     62 CA         36.0817  -47.9724  -54.2845 C.3       2 UNK         0.0286 
     63 CB         36.9966  -49.2182  -54.3242 C.3       2 UNK        -0.1963 
     64 N          35.1356  -48.0001  -55.4080 N.am      2 UNK        -0.4790 
     65 C          34.0609  -48.7960  -55.5233 C.2       1 UNK         0.5024 
     66 O          33.7688  -49.6696  -54.7067 O.2       1 UNK        -0.4888 
     67 H67        35.1491  -49.8240  -60.6188 H         1 UNK         0.0892 
     68 H68        36.5295  -49.3042  -59.6479 H         1 UNK         0.0892 
     69 H69        35.3018  -48.1340  -60.1350 H         1 UNK         0.0892 
     70 H70        33.9235  -47.5994  -58.4538 H         1 UNK         0.3107 
     71 H71        32.5798  -49.5136  -56.8457 H         1 UNK         0.0773 
     72 H72        31.2857  -47.6296  -57.1906 H         1 UNK         0.0680 
     73 H73        31.8033  -47.3557  -55.5616 H         1 UNK         0.0680 
     74 H74        33.8282  -45.6320  -54.9653 H         1 UNK         0.0650 
     75 H75        33.8287  -44.0953  -55.7889 H         1 UNK         0.0650 
     76 H76        33.0791  -44.7148  -52.8820 H         1 UNK         0.1397 
     77 H77        29.1093  -43.1401  -52.5407 H         1 UNK         0.1363 
     78 H78        30.6891  -44.1159  -56.3996 H         1 UNK         0.1355 
     79 H79        28.6065  -42.8296  -56.1982 H         1 UNK         0.0707 
     80 H80        28.0661  -42.2834  -54.6285 H         1 UNK         0.0707 
     81 H81        25.7641  -42.5748  -54.8384 H         1 UNK         0.1034 
     82 H82        24.9413  -44.0767  -54.6046 H         1 UNK         0.1034 
     83 H83        24.0401  -43.1432  -56.5928 H         1 UNK         0.0482 
     84 H84        26.7960  -42.1244  -59.3001 H         1 UNK         0.3460 
     85 H85        26.3019  -43.7827  -59.0768 H         1 UNK         0.3460 
     86 H86        25.6357  -45.5263  -56.9195 H         1 UNK         0.2989 
     87 H87        23.9161  -47.3445  -58.1385 H         1 UNK         0.0559 
     88 H88        24.2437  -46.1871  -60.9593 H         1 UNK         0.0848 
     89 H89        22.7527  -46.7541  -60.2260 H         1 UNK         0.0848 
     90 H90        24.0352  -47.8977  -60.5858 H         1 UNK         0.0848 
     91 H91        26.0778  -47.7551  -58.1115 H         1 UNK         0.3144 
     92 H92        28.7538  -47.1943  -59.9734 H         1 UNK         0.0727 
     93 H93        30.1678  -45.8392  -58.4437 H         1 UNK         0.0790 
     94 H94        28.7325  -45.1352  -57.6989 H         1 UNK         0.0790 
     95 H95        29.1194  -44.7973  -59.3785 H         1 UNK         0.0790 
     96 H96        28.5191  -47.4963  -57.0643 H         1 UNK         0.3215 
     97 H97        27.4651  -50.8118  -57.1354 H         1 UNK         0.0863 
     98 H98        29.5197  -51.4758  -55.9697 H         1 UNK         0.0808 
     99 H99        30.3360  -49.9934  -56.4571 H         1 UNK         0.0808 
    100 H100       29.9105  -51.2055  -57.6594 H         1 UNK         0.0808 
    101 H101       28.5200  -49.3743  -54.9725 H         1 UNK         0.3118 
    102 H102       25.7820  -47.2634  -54.2219 H         1 UNK         0.0546 
    103 H103       24.6955  -49.4981  -53.7212 H         1 UNK         0.0828 
    104 H104       25.2995  -48.7271  -52.2691 H         1 UNK         0.0828 
    105 H105       26.1989  -50.0558  -52.9990 H         1 UNK         0.0828 
    106 H106       28.4970  -48.0663  -53.9225 H         1 UNK         0.3005 
    107 H107       29.7403  -46.3005  -52.7604 H         1 UNK         0.1257 
    108 H108       28.9894  -46.4424  -49.7940 H         1 UNK         0.0775 
    109 H109       28.8350  -45.0184  -50.7866 H         1 UNK         0.0775 
    110 H110       30.5457  -43.1774  -50.5964 H         1 UNK         0.0840 
    111 H111       32.2597  -43.4316  -50.8013 H         1 UNK         0.0840 
    112 H112       30.3909  -48.2703  -50.8251 H         1 UNK         0.2987 
    113 H113       30.8470  -50.5097  -51.3394 H         1 UNK         0.0785 
    114 H114       31.5965  -50.9984  -54.2694 H         1 UNK         0.0798 
    115 H115       30.2066  -51.6527  -53.4217 H         1 UNK         0.0798 
    116 H116       31.8260  -52.1401  -52.9478 H         1 UNK         0.0798 
    117 H117       33.2660  -49.7649  -52.8665 H         1 UNK         0.3079 
    118 H118       34.6511  -47.8085  -50.3792 H         1 UNK         0.0794 
    119 H119       35.3201  -50.7984  -50.2326 H         1 UNK         0.0786 
    120 H120       34.8781  -49.7743  -48.8737 H         1 UNK         0.0786 
    121 H121       36.3808  -49.4808  -49.7310 H         1 UNK         0.0786 
    122 H122       35.7087  -49.6801  -52.4005 H         1 UNK         0.3032 
    123 H123       36.7148  -47.0947  -54.4261 H         1 UNK         0.1094 
    124 H124       37.5666  -49.2493  -55.2529 H         1 UNK         0.0794 
    125 H125       37.7209  -49.2029  -53.5086 H         1 UNK         0.0794 
    126 H126       36.4365  -50.1515  -54.2577 H         1 UNK         0.0794 
    127 H127       35.2833  -47.3058  -56.1270 H         1 UNK         0.3016 
@<TRIPOS>BOND
     1    1    2 1    
     2    1   67 1    
     3    1   68 1    
     4    1   69 1    
     5    2    3 2    
     6    2    4 am   BACKBONE|DICT|INTERRES
     7    4    5 1    
     8    4   70 1    
     9    5    6 1    
    10    5   65 1    
    11    5   71 1    
    12    6    7 1    
    13    6   72 1    
    14    6   73 1    
    15    7    8 1    
    16    8    9 1    
    17    8   74 1    
    18    8   75 1    
    19    9   10 ar   
    20    9   14 ar   
    21   10   11 ar   
    22   10   76 1    
    23   11   12 ar   
    24   11   48 1    
    25   12   13 ar   
    26   12   77 1    
    27   13   14 ar   
    28   13   15 1    
    29   14   78 1    
    30   15   16 1    
    31   15   79 1    
    32   15   80 1    
    33   16   17 1    
    34   17   18 1    
    35   17   81 1    
    36   17   82 1    
    37   18   19 1    
    38   18   22 1    
    39   18   83 1    
    40   19   20 am   BACKBONE|DICT|INTERRES
    41   19   21 2    
    42   20   84 1    
    43   20   85 1    
    44   22   23 am   BACKBONE|DICT|INTERRES
    45   22   86 1    
    46   23   24 2    
    47   23   25 1    
    48   25   26 1    
    49   25   27 1    
    50   25   87 1    
    51   26   88 1    
    52   26   89 1    
    53   26   90 1    
    54   27   28 am   BACKBONE|DICT|INTERRES
    55   27   91 1    
    56   28   29 2    
    57   28   30 1    
    58   30   31 1    
    59   30   32 1    
    60   30   92 1    
    61   31   93 1    
    62   31   94 1    
    63   31   95 1    
    64   32   33 am   BACKBONE|DICT|INTERRES
    65   32   96 1    
    66   33   34 2    
    67   33   35 1    
    68   35   36 1    
    69   35   37 1    
    70   35   97 1    
    71   36   98 1    
    72   36   99 1    
    73   36  100 1    
    74   37   38 am   BACKBONE|DICT|INTERRES
    75   37  101 1    
    76   38   39 2    
    77   38   40 1    
    78   40   41 1    
    79   40   42 1    
    80   40  102 1    
    81   41  103 1    
    82   41  104 1    
    83   41  105 1    
    84   42   43 am   BACKBONE|DICT|INTERRES
    85   42  106 1    
    86   43   44 2    
    87   43   45 1    
    88   45   46 1    
    89   45   49 1    
    90   45  107 1    
    91   46   47 1    
    92   46  108 1    
    93   46  109 1    
    94   47   48 1    
    95   48  110 1    
    96   48  111 1    
    97   49   50 am   BACKBONE|DICT|INTERRES
    98   49  112 1    
    99   50   51 2    
   100   50   52 1    
   101   52   53 1    
   102   52   54 1    
   103   52  113 1    
   104   53  114 1    
   105   53  115 1    
   106   53  116 1    
   107   54   55 am   BACKBONE|DICT|INTERRES
   108   54  117 1    
   109   55   56 2    
   110   55   57 1    
   111   57   58 1    
   112   57   59 1    
   113   57  118 1    
   114   58  119 1    
   115   58  120 1    
   116   58  121 1    
   117   59   60 am   BACKBONE|DICT|INTERRES
   118   59  122 1    
   119   60   61 2    
   120   60   62 1    
   121   62   63 1    
   122   62   64 1    
   123   62  123 1    
   124   63  124 1    
   125   63  125 1    
   126   63  126 1    
   127   64   65 am   BACKBONE|DICT|INTERRES
   128   64  127 1    
   129   65   66 2    
@<TRIPOS>SUBSTRUCTURE
     1 UNK         1 GROUP             0       ****    0 ROOT    
