@<TRIPOS>MOLECULE
3R134
127   129    1
SMALL
USER_CHARGES


@<TRIPOS>ATOM
      1 CA         37.1308  -42.9248  -52.7066 C.3       0 UNK        -0.1968 
      2 C          37.3787  -44.2685  -52.0268 C.2       0 UNK         0.4852 
      3 O          38.2919  -44.3683  -51.2080 O.2       0 UNK        -0.5359 
      4 N          36.6110  -45.3239  -52.3246 N.am      1 UNK        -0.4300 
      5 CA         35.5438  -45.4104  -53.3267 C.3       1 UNK         0.0863 
      6 C6         34.1334  -45.5209  -52.6876 C.3       11 UNK        -0.0953 
      7 S7         33.7266  -44.1412  -51.5640 S.3       11 UNK        -0.2369 
      8 C8         32.9897  -42.9196  -52.6955 C.3       11 UNK         0.0226 
      9 C9         31.6005  -43.3265  -53.1645 C.ar      11 UNK        -0.0699 
     10 C10        30.5255  -43.3170  -52.2713 C.ar      11 UNK        -0.0804 
     11 C11        29.2439  -43.6811  -52.6965 C.ar      11 UNK        -0.0871 
     12 C12        29.0363  -44.0368  -54.0324 C.ar      11 UNK        -0.1008 
     13 C13        30.1085  -44.0680  -54.9289 C.ar      11 UNK        -0.0735 
     14 C14        31.3859  -43.7059  -54.4918 C.ar      11 UNK        -0.0945 
     15 C15        29.9118  -44.5543  -56.3537 C.3       11 UNK         0.0169 
     16 S16        29.7913  -43.1992  -57.5544 S.3       11 UNK        -0.2669 
     17 C17        28.0292  -42.7239  -57.4436 C.3       11 UNK        -0.0850 
     18 CA         27.0981  -43.3895  -58.4969 C.3       10 UNK         0.0855 
     19 C          27.5739  -43.1714  -59.9665 C.2       10 UNK         0.5543 
     20 N          27.9277  -44.2129  -60.7128 N.am      10 UNK        -0.7343 
     21 O          27.6069  -42.0370  -60.4373 O.2       10 UNK        -0.5027 
     22 N          26.7838  -44.7861  -58.1528 N.am      10 UNK        -0.4495 
     23 C          25.7246  -45.4576  -58.6258 C.2       10 UNK         0.4903 
     24 O          24.8486  -44.9365  -59.3183 O.2       10 UNK        -0.4860 
     25 CA         25.6044  -46.9514  -58.2614 C.3       9 UNK         0.0227 
     26 CB         24.9163  -47.7718  -59.3731 C.3       9 UNK        -0.1964 
     27 N          26.8586  -47.6010  -57.8555 N.am      9 UNK        -0.4231 
     28 C          27.9736  -47.7643  -58.5851 C.2       9 UNK         0.5014 
     29 O          28.1534  -47.2401  -59.6857 O.2       9 UNK        -0.5270 
     30 CA         29.0739  -48.6688  -57.9964 C.3       8 UNK         0.0284 
     31 CB         30.1846  -47.8464  -57.3293 C.3       8 UNK        -0.1977 
     32 N          28.5624  -49.6569  -57.0425 N.am      8 UNK        -0.4342 
     33 C          27.9216  -50.7798  -57.3961 C.2       8 UNK         0.5039 
     34 O          27.7194  -51.1193  -58.5625 O.2       8 UNK        -0.5547 
     35 CA         27.4089  -51.6665  -56.2538 C.3       7 UNK         0.0281 
     36 CB         28.5644  -52.4305  -55.5842 C.3       7 UNK        -0.1963 
     37 N          26.6868  -50.8784  -55.2544 N.am      7 UNK        -0.4444 
     38 C          25.3973  -50.5272  -55.3560 C.2       7 UNK         0.5104 
     39 O          24.6726  -50.8513  -56.2969 O.2       7 UNK        -0.5100 
     40 CA         24.8003  -49.6860  -54.2122 C.3       6 UNK         0.0396 
     41 CB         24.0297  -50.5878  -53.2346 C.3       6 UNK        -0.1801 
     42 N          25.7976  -48.9142  -53.4659 N.am      6 UNK        -0.4747 
     43 C          26.4022  -47.8109  -53.9283 C.2       6 UNK         0.5012 
     44 O          26.1856  -47.3244  -55.0365 O.2       6 UNK        -0.5003 
     45 CA         27.4670  -47.1708  -53.0174 C.3       5 UNK         0.0782 
     46 C46        26.7875  -46.2149  -52.0053 C.3       11 UNK        -0.0868 
     47 S47        27.9542  -45.3418  -50.9062 S.3       11 UNK        -0.2515 
     48 C48        28.0956  -43.7070  -51.7005 C.3       11 UNK         0.0199 
     49 N          28.3533  -48.1542  -52.3791 N.am      5 UNK        -0.4607 
     50 C          29.0830  -49.0630  -53.0390 C.2       4 UNK         0.5031 
     51 O          28.9878  -49.2699  -54.2527 O.2       4 UNK        -0.5119 
     52 CA         30.0533  -49.9142  -52.2020 C.3       4 UNK         0.0263 
     53 CB         29.3258  -51.1450  -51.6370 C.3       4 UNK        -0.1967 
     54 N          31.1951  -50.3597  -53.0063 N.am      4 UNK        -0.4237 
     55 C          32.0925  -49.5327  -53.5589 C.2       3 UNK         0.4908 
     56 O          32.1589  -48.3257  -53.3040 O.2       3 UNK        -0.5102 
     57 CA         33.0541  -50.1444  -54.5892 C.3       3 UNK         0.0241 
     58 CB         32.3107  -50.9926  -55.6470 C.3       3 UNK        -0.1971 
     59 N          33.7666  -49.0343  -55.2127 N.am      3 UNK        -0.4139 
     60 C          34.8630  -49.0904  -55.9734 C.2       2 UNK         0.5016 
     61 O          35.4120  -50.1363  -56.3222 O.2       2 UNK        -0.5319 
     62 CA         35.4590  -47.7381  -56.4086 C.3       2 UNK         0.0286 
     63 CB         34.8587  -47.2999  -57.7550 C.3       2 UNK        -0.1963 
     64 N          35.2774  -46.6597  -55.4254 N.am      2 UNK        -0.4790 
     65 C          35.8345  -46.6421  -54.2053 C.2       1 UNK         0.5024 
     66 O          36.5454  -47.5522  -53.7690 O.2       1 UNK        -0.4888 
     67 H67        36.0920  -42.6157  -52.6021 H         1 UNK         0.0892 
     68 H68        37.7506  -42.1490  -52.2576 H         1 UNK         0.0892 
     69 H69        37.3794  -42.9779  -53.7662 H         1 UNK         0.0892 
     70 H70        36.8437  -46.2189  -51.9151 H         1 UNK         0.3107 
     71 H71        35.5629  -44.5416  -53.9853 H         1 UNK         0.0773 
     72 H72        34.0529  -46.4419  -52.1066 H         1 UNK         0.0680 
     73 H73        33.3618  -45.5899  -53.4561 H         1 UNK         0.0680 
     74 H74        33.6584  -42.7610  -53.5427 H         1 UNK         0.0650 
     75 H75        32.9221  -41.9618  -52.1777 H         1 UNK         0.0650 
     76 H76        30.6927  -43.0402  -51.2391 H         1 UNK         0.1397 
     77 H77        28.0468  -44.3177  -54.3654 H         1 UNK         0.1363 
     78 H78        32.2140  -43.7283  -55.1868 H         1 UNK         0.1355 
     79 H79        30.7717  -45.1648  -56.6287 H         1 UNK         0.0707 
     80 H80        29.0357  -45.1984  -56.4256 H         1 UNK         0.0707 
     81 H81        27.6572  -42.9114  -56.4357 H         1 UNK         0.1034 
     82 H82        27.9837  -41.6400  -57.5633 H         1 UNK         0.1034 
     83 H83        26.1518  -42.8485  -58.4305 H         1 UNK         0.0482 
     84 H84        28.2284  -44.0612  -61.6621 H         1 UNK         0.3460 
     85 H85        27.9141  -45.1502  -60.3302 H         1 UNK         0.3460 
     86 H86        27.4715  -45.2891  -57.6155 H         1 UNK         0.2989 
     87 H87        24.9539  -46.9874  -57.3869 H         1 UNK         0.0559 
     88 H88        25.4777  -47.7355  -60.3073 H         1 UNK         0.0848 
     89 H89        23.9142  -47.3946  -59.5806 H         1 UNK         0.0848 
     90 H90        24.8116  -48.8181  -59.0849 H         1 UNK         0.0848 
     91 H91        26.8419  -47.9840  -56.9170 H         1 UNK         0.3144 
     92 H92        29.5222  -49.2023  -58.8376 H         1 UNK         0.0727 
     93 H93        31.0666  -48.4553  -57.1369 H         1 UNK         0.0790 
     94 H94        29.8593  -47.4282  -56.3767 H         1 UNK         0.0790 
     95 H95        30.5035  -47.0287  -57.9766 H         1 UNK         0.0790 
     96 H96        28.7099  -49.4697  -56.0508 H         1 UNK         0.3215 
     97 H97        26.7277  -52.4049  -56.6833 H         1 UNK         0.0863 
     98 H98        29.2895  -51.7592  -55.1251 H         1 UNK         0.0808 
     99 H99        29.1020  -53.0377  -56.3137 H         1 UNK         0.0808 
    100 H100       28.1965  -53.1048  -54.8108 H         1 UNK         0.0808 
    101 H101       27.2321  -50.5014  -54.4904 H         1 UNK         0.3118 
    102 H102       24.0899  -48.9861  -54.6579 H         1 UNK         0.0546 
    103 H103       24.6862  -51.3076  -52.7441 H         1 UNK         0.0828 
    104 H104       23.2561  -51.1550  -53.7543 H         1 UNK         0.0828 
    105 H105       23.5332  -50.0024  -52.4607 H         1 UNK         0.0828 
    106 H106       26.0473  -49.2513  -52.5468 H         1 UNK         0.3005 
    107 H107       28.1071  -46.5783  -53.6715 H         1 UNK         0.1257 
    108 H108       26.1005  -46.7727  -51.3657 H         1 UNK         0.0775 
    109 H109       26.1715  -45.4804  -52.5276 H         1 UNK         0.0775 
    110 H110       27.1585  -43.4251  -52.1824 H         1 UNK         0.0840 
    111 H111       28.2663  -42.9588  -50.9247 H         1 UNK         0.0840 
    112 H112       28.4841  -48.0450  -51.3836 H         1 UNK         0.2987 
    113 H113       30.4316  -49.3085  -51.3758 H         1 UNK         0.0785 
    114 H114       28.4874  -50.8499  -51.0045 H         1 UNK         0.0798 
    115 H115       29.9917  -51.7521  -51.0234 H         1 UNK         0.0798 
    116 H116       28.9277  -51.7803  -52.4294 H         1 UNK         0.0798 
    117 H117       31.2028  -51.3314  -53.2772 H         1 UNK         0.3079 
    118 H118       33.7774  -50.7658  -54.0578 H         1 UNK         0.0794 
    119 H119       31.9165  -51.9103  -55.2104 H         1 UNK         0.0786 
    120 H120       32.9671  -51.2944  -56.4626 H         1 UNK         0.0786 
    121 H121       31.4689  -50.4533  -56.0807 H         1 UNK         0.0786 
    122 H122       33.4160  -48.1291  -54.9216 H         1 UNK         0.3032 
    123 H123       36.5326  -47.8890  -56.5447 H         1 UNK         0.1094 
    124 H124       35.3362  -46.3935  -58.1276 H         1 UNK         0.0794 
    125 H125       34.9986  -48.0717  -58.5134 H         1 UNK         0.0794 
    126 H126       33.7872  -47.1101  -57.6784 H         1 UNK         0.0794 
    127 H127       34.7089  -45.8770  -55.7161 H         1 UNK         0.3016 
@<TRIPOS>BOND
     1    1    2 1    
     2    1   67 1    
     3    1   68 1    
     4    1   69 1    
     5    2    3 2    
     6    2    4 am   BACKBONE|DICT|INTERRES
     7    4    5 1    
     8    4   70 1    
     9    5    6 1    
    10    5   65 1    
    11    5   71 1    
    12    6    7 1    
    13    6   72 1    
    14    6   73 1    
    15    7    8 1    
    16    8    9 1    
    17    8   74 1    
    18    8   75 1    
    19    9   10 ar   
    20    9   14 ar   
    21   10   11 ar   
    22   10   76 1    
    23   11   12 ar   
    24   11   48 1    
    25   12   13 ar   
    26   12   77 1    
    27   13   14 ar   
    28   13   15 1    
    29   14   78 1    
    30   15   16 1    
    31   15   79 1    
    32   15   80 1    
    33   16   17 1    
    34   17   18 1    
    35   17   81 1    
    36   17   82 1    
    37   18   19 1    
    38   18   22 1    
    39   18   83 1    
    40   19   20 am   BACKBONE|DICT|INTERRES
    41   19   21 2    
    42   20   84 1    
    43   20   85 1    
    44   22   23 am   BACKBONE|DICT|INTERRES
    45   22   86 1    
    46   23   24 2    
    47   23   25 1    
    48   25   26 1    
    49   25   27 1    
    50   25   87 1    
    51   26   88 1    
    52   26   89 1    
    53   26   90 1    
    54   27   28 am   BACKBONE|DICT|INTERRES
    55   27   91 1    
    56   28   29 2    
    57   28   30 1    
    58   30   31 1    
    59   30   32 1    
    60   30   92 1    
    61   31   93 1    
    62   31   94 1    
    63   31   95 1    
    64   32   33 am   BACKBONE|DICT|INTERRES
    65   32   96 1    
    66   33   34 2    
    67   33   35 1    
    68   35   36 1    
    69   35   37 1    
    70   35   97 1    
    71   36   98 1    
    72   36   99 1    
    73   36  100 1    
    74   37   38 am   BACKBONE|DICT|INTERRES
    75   37  101 1    
    76   38   39 2    
    77   38   40 1    
    78   40   41 1    
    79   40   42 1    
    80   40  102 1    
    81   41  103 1    
    82   41  104 1    
    83   41  105 1    
    84   42   43 am   BACKBONE|DICT|INTERRES
    85   42  106 1    
    86   43   44 2    
    87   43   45 1    
    88   45   46 1    
    89   45   49 1    
    90   45  107 1    
    91   46   47 1    
    92   46  108 1    
    93   46  109 1    
    94   47   48 1    
    95   48  110 1    
    96   48  111 1    
    97   49   50 am   BACKBONE|DICT|INTERRES
    98   49  112 1    
    99   50   51 2    
   100   50   52 1    
   101   52   53 1    
   102   52   54 1    
   103   52  113 1    
   104   53  114 1    
   105   53  115 1    
   106   53  116 1    
   107   54   55 am   BACKBONE|DICT|INTERRES
   108   54  117 1    
   109   55   56 2    
   110   55   57 1    
   111   57   58 1    
   112   57   59 1    
   113   57  118 1    
   114   58  119 1    
   115   58  120 1    
   116   58  121 1    
   117   59   60 am   BACKBONE|DICT|INTERRES
   118   59  122 1    
   119   60   61 2    
   120   60   62 1    
   121   62   63 1    
   122   62   64 1    
   123   62  123 1    
   124   63  124 1    
   125   63  125 1    
   126   63  126 1    
   127   64   65 am   BACKBONE|DICT|INTERRES
   128   64  127 1    
   129   65   66 2    
@<TRIPOS>SUBSTRUCTURE
     1 UNK         1 GROUP             0       ****    0 ROOT    
