@<TRIPOS>MOLECULE
3R134
127   129    1
SMALL
USER_CHARGES


@<TRIPOS>ATOM
      1 CA         38.0186  -43.4893  -55.9343 C.3       0 UNK        -0.1968 
      2 C          36.9939  -44.4974  -55.4356 C.2       0 UNK         0.4852 
      3 O          37.3321  -45.3557  -54.6182 O.2       0 UNK        -0.5359 
      4 N          35.7493  -44.4040  -55.9273 N.am      1 UNK        -0.4300 
      5 CA         34.5938  -45.2581  -55.6151 C.3       1 UNK         0.0863 
      6 C6         34.2510  -45.2978  -54.1003 C.3       11 UNK        -0.0953 
      7 S7         32.5036  -45.6977  -53.7800 S.3       11 UNK        -0.2369 
      8 C8         31.8199  -44.0480  -53.4487 C.3       11 UNK         0.0226 
      9 C9         30.3464  -44.1368  -53.0879 C.ar      11 UNK        -0.0699 
     10 C10        29.9504  -44.1919  -51.7504 C.ar      11 UNK        -0.0804 
     11 C11        28.5976  -44.2966  -51.4157 C.ar      11 UNK        -0.0871 
     12 C12        27.6334  -44.3078  -52.4302 C.ar      11 UNK        -0.1008 
     13 C13        28.0196  -44.2743  -53.7751 C.ar      11 UNK        -0.0735 
     14 C14        29.3792  -44.1899  -54.0935 C.ar      11 UNK        -0.0945 
     15 C15        26.9745  -44.4079  -54.8758 C.3       11 UNK         0.0169 
     16 S16        26.4773  -42.8114  -55.6014 S.3       11 UNK        -0.2669 
     17 C17        27.7659  -42.5111  -56.8637 C.3       11 UNK        -0.0850 
     18 CA         27.3997  -43.0345  -58.2793 C.3       10 UNK         0.0855 
     19 C          28.5074  -42.6427  -59.3028 C.2       10 UNK         0.5543 
     20 N          29.2843  -43.5785  -59.8387 N.am      10 UNK        -0.7343 
     21 O          28.6620  -41.4644  -59.6135 O.2       10 UNK        -0.5027 
     22 N          27.0800  -44.4701  -58.2686 N.am      10 UNK        -0.4495 
     23 C          26.4523  -45.1306  -59.2482 C.2       10 UNK         0.4903 
     24 O          25.9576  -44.5781  -60.2321 O.2       10 UNK        -0.4860 
     25 CA         26.3559  -46.6649  -59.1046 C.3       9 UNK         0.0227 
     26 CB         26.3916  -47.3786  -60.4722 C.3       9 UNK        -0.1964 
     27 N          27.3392  -47.2703  -58.1905 N.am      9 UNK        -0.4231 
     28 C          28.6803  -47.2233  -58.2802 C.2       9 UNK         0.5014 
     29 O          29.2772  -46.5549  -59.1262 O.2       9 UNK        -0.5270 
     30 CA         29.5092  -48.0143  -57.2437 C.3       8 UNK         0.0284 
     31 CB         30.2284  -47.0506  -56.2876 C.3       8 UNK        -0.1977 
     32 N          28.7413  -48.9720  -56.4419 N.am      8 UNK        -0.4342 
     33 C          28.1544  -50.0838  -56.9060 C.2       8 UNK         0.5039 
     34 O          28.2737  -50.4926  -58.0611 O.2       8 UNK        -0.5547 
     35 CA         27.2297  -50.8346  -55.9296 C.3       7 UNK         0.0281 
     36 CB         28.0170  -51.8924  -55.1399 C.3       7 UNK        -0.1963 
     37 N          26.5221  -49.9466  -54.9972 N.am      7 UNK        -0.4444 
     38 C          25.6705  -48.9702  -55.3430 C.2       7 UNK         0.5104 
     39 O          25.3685  -48.7174  -56.5086 O.2       7 UNK        -0.5100 
     40 CA         25.1046  -48.0760  -54.2232 C.3       6 UNK         0.0396 
     41 CB         23.8562  -48.7050  -53.5749 C.3       6 UNK        -0.1801 
     42 N          26.1078  -47.6665  -53.2285 N.am      6 UNK        -0.4747 
     43 C          26.7322  -48.4248  -52.3176 C.2       6 UNK         0.5012 
     44 O          26.4683  -49.6124  -52.1134 O.2       6 UNK        -0.5003 
     45 CA         27.8797  -47.7486  -51.5402 C.3       5 UNK         0.0782 
     46 C46        27.3444  -47.1404  -50.2197 C.3       11 UNK        -0.0868 
     47 S47        28.5813  -46.1263  -49.3432 S.3       11 UNK        -0.2515 
     48 C48        28.1944  -44.4511  -49.9571 C.3       11 UNK         0.0199 
     49 N          28.9954  -48.6792  -51.3345 N.am      5 UNK        -0.4607 
     50 C          29.6683  -49.2800  -52.3263 C.2       4 UNK         0.5031 
     51 O          29.4667  -49.0531  -53.5245 O.2       4 UNK        -0.5119 
     52 CA         30.6859  -50.3539  -51.8976 C.3       4 UNK         0.0263 
     53 CB         29.9612  -51.5935  -51.3431 C.3       4 UNK        -0.1967 
     54 N          31.5315  -50.7727  -53.0166 N.am      4 UNK        -0.4237 
     55 C          32.5438  -50.0523  -53.5116 C.2       3 UNK         0.4908 
     56 O          32.9791  -49.0253  -52.9838 O.2       3 UNK        -0.5102 
     57 CA         33.1761  -50.5722  -54.8108 C.3       3 UNK         0.0241 
     58 CB         32.1332  -50.7007  -55.9431 C.3       3 UNK        -0.1971 
     59 N          34.2376  -49.6491  -55.2009 N.am      3 UNK        -0.4139 
     60 C          35.1909  -49.8607  -56.1134 C.2       2 UNK         0.5016 
     61 O          35.3097  -50.9186  -56.7349 O.2       2 UNK        -0.5319 
     62 CA         36.1988  -48.7174  -56.3649 C.3       2 UNK         0.0286 
     63 CB         36.6165  -48.6280  -57.8482 C.3       2 UNK        -0.1963 
     64 N          35.7829  -47.3942  -55.8727 N.am      2 UNK        -0.4790 
     65 C          34.7191  -46.6643  -56.2423 C.2       1 UNK         0.5024 
     66 O          33.8767  -47.0399  -57.0576 O.2       1 UNK        -0.4888 
     67 H67        38.4205  -42.9190  -55.0974 H         1 UNK         0.0892 
     68 H68        38.8445  -44.0054  -56.4230 H         1 UNK         0.0892 
     69 H69        37.5880  -42.7867  -56.6475 H         1 UNK         0.0892 
     70 H70        35.5622  -43.6892  -56.6173 H         1 UNK         0.3107 
     71 H71        33.7594  -44.7715  -56.1238 H         1 UNK         0.0773 
     72 H72        34.8741  -46.0185  -53.5679 H         1 UNK         0.0680 
     73 H73        34.4699  -44.3320  -53.6425 H         1 UNK         0.0680 
     74 H74        31.9535  -43.4161  -54.3281 H         1 UNK         0.0650 
     75 H75        32.3780  -43.5776  -52.6377 H         1 UNK         0.0650 
     76 H76        30.6975  -44.1861  -50.9682 H         1 UNK         0.1397 
     77 H77        26.5857  -44.3862  -52.1730 H         1 UNK         0.1363 
     78 H78        29.7021  -44.1935  -55.1230 H         1 UNK         0.1355 
     79 H79        27.3392  -45.0835  -55.6486 H         1 UNK         0.0707 
     80 H80        26.0758  -44.8781  -54.4752 H         1 UNK         0.0707 
     81 H81        27.9221  -41.4310  -56.9009 H         1 UNK         0.1034 
     82 H82        28.7176  -42.9255  -56.5398 H         1 UNK         0.1034 
     83 H83        26.4962  -42.5097  -58.5959 H         1 UNK         0.0482 
     84 H84        29.1744  -44.5557  -59.5897 H         1 UNK         0.3460 
     85 H85        29.9939  -43.3085  -60.5007 H         1 UNK         0.3460 
     86 H86        27.4687  -45.0085  -57.5124 H         1 UNK         0.2989 
     87 H87        25.3791  -46.8589  -58.6596 H         1 UNK         0.0559 
     88 H88        25.5717  -47.0494  -61.1116 H         1 UNK         0.0848 
     89 H89        26.2957  -48.4585  -60.3577 H         1 UNK         0.0848 
     90 H90        27.3212  -47.1794  -61.0066 H         1 UNK         0.0848 
     91 H91        26.9292  -47.8512  -57.4659 H         1 UNK         0.3144 
     92 H92        30.2637  -48.5712  -57.8025 H         1 UNK         0.0727 
     93 H93        30.9175  -47.5813  -55.6305 H         1 UNK         0.0790 
     94 H94        29.5205  -46.5178  -55.6550 H         1 UNK         0.0790 
     95 H95        30.8151  -46.3092  -56.8322 H         1 UNK         0.0790 
     96 H96        28.6833  -48.7887  -55.4446 H         1 UNK         0.3215 
     97 H97        26.4731  -51.3473  -56.5273 H         1 UNK         0.0863 
     98 H98        27.3618  -52.4753  -54.4924 H         1 UNK         0.0808 
     99 H99        28.7886  -51.4402  -54.5177 H         1 UNK         0.0808 
    100 H100       28.5122  -52.5923  -55.8144 H         1 UNK         0.0808 
    101 H101       26.7061  -50.0687  -54.0055 H         1 UNK         0.3118 
    102 H102       24.7815  -47.1502  -54.7021 H         1 UNK         0.0546 
    103 H103       24.0684  -49.6724  -53.1194 H         1 UNK         0.0828 
    104 H104       23.0762  -48.8676  -54.3198 H         1 UNK         0.0828 
    105 H105       23.4385  -48.0558  -52.8057 H         1 UNK         0.0828 
    106 H106       26.4141  -46.7087  -53.3171 H         1 UNK         0.3005 
    107 H107       28.2768  -46.9483  -52.1657 H         1 UNK         0.1257 
    108 H108       27.0164  -47.9329  -49.5442 H         1 UNK         0.0775 
    109 H109       26.4624  -46.5237  -50.4041 H         1 UNK         0.0775 
    110 H110       27.1336  -44.2384  -49.8158 H         1 UNK         0.0840 
    111 H111       28.7341  -43.7197  -49.3537 H         1 UNK         0.0840 
    112 H112       29.1996  -48.9232  -50.3770 H         1 UNK         0.2987 
    113 H113       31.3196  -49.9332  -51.1138 H         1 UNK         0.0785 
    114 H114       29.3653  -51.3446  -50.4642 H         1 UNK         0.0798 
    115 H115       30.6695  -52.3649  -51.0401 H         1 UNK         0.0798 
    116 H116       29.2841  -52.0295  -52.0788 H         1 UNK         0.0798 
    117 H117       31.2305  -51.5927  -53.5212 H         1 UNK         0.3079 
    118 H118       33.6180  -51.5489  -54.6039 H         1 UNK         0.0794 
    119 H119       32.5804  -51.0835  -56.8603 H         1 UNK         0.0786 
    120 H120       31.6820  -49.7372  -56.1745 H         1 UNK         0.0786 
    121 H121       31.3261  -51.3840  -55.6786 H         1 UNK         0.0786 
    122 H122       34.2261  -48.7753  -54.6878 H         1 UNK         0.3032 
    123 H123       37.0879  -48.9832  -55.7907 H         1 UNK         0.1094 
    124 H124       35.7629  -48.4282  -58.4967 H         1 UNK         0.0794 
    125 H125       37.3512  -47.8386  -58.0069 H         1 UNK         0.0794 
    126 H126       37.0696  -49.5605  -58.1870 H         1 UNK         0.0794 
    127 H127       36.4243  -46.9419  -55.2238 H         1 UNK         0.3016 
@<TRIPOS>BOND
     1    1    2 1    
     2    1   67 1    
     3    1   68 1    
     4    1   69 1    
     5    2    3 2    
     6    2    4 am   BACKBONE|DICT|INTERRES
     7    4    5 1    
     8    4   70 1    
     9    5    6 1    
    10    5   65 1    
    11    5   71 1    
    12    6    7 1    
    13    6   72 1    
    14    6   73 1    
    15    7    8 1    
    16    8    9 1    
    17    8   74 1    
    18    8   75 1    
    19    9   10 ar   
    20    9   14 ar   
    21   10   11 ar   
    22   10   76 1    
    23   11   12 ar   
    24   11   48 1    
    25   12   13 ar   
    26   12   77 1    
    27   13   14 ar   
    28   13   15 1    
    29   14   78 1    
    30   15   16 1    
    31   15   79 1    
    32   15   80 1    
    33   16   17 1    
    34   17   18 1    
    35   17   81 1    
    36   17   82 1    
    37   18   19 1    
    38   18   22 1    
    39   18   83 1    
    40   19   20 am   BACKBONE|DICT|INTERRES
    41   19   21 2    
    42   20   84 1    
    43   20   85 1    
    44   22   23 am   BACKBONE|DICT|INTERRES
    45   22   86 1    
    46   23   24 2    
    47   23   25 1    
    48   25   26 1    
    49   25   27 1    
    50   25   87 1    
    51   26   88 1    
    52   26   89 1    
    53   26   90 1    
    54   27   28 am   BACKBONE|DICT|INTERRES
    55   27   91 1    
    56   28   29 2    
    57   28   30 1    
    58   30   31 1    
    59   30   32 1    
    60   30   92 1    
    61   31   93 1    
    62   31   94 1    
    63   31   95 1    
    64   32   33 am   BACKBONE|DICT|INTERRES
    65   32   96 1    
    66   33   34 2    
    67   33   35 1    
    68   35   36 1    
    69   35   37 1    
    70   35   97 1    
    71   36   98 1    
    72   36   99 1    
    73   36  100 1    
    74   37   38 am   BACKBONE|DICT|INTERRES
    75   37  101 1    
    76   38   39 2    
    77   38   40 1    
    78   40   41 1    
    79   40   42 1    
    80   40  102 1    
    81   41  103 1    
    82   41  104 1    
    83   41  105 1    
    84   42   43 am   BACKBONE|DICT|INTERRES
    85   42  106 1    
    86   43   44 2    
    87   43   45 1    
    88   45   46 1    
    89   45   49 1    
    90   45  107 1    
    91   46   47 1    
    92   46  108 1    
    93   46  109 1    
    94   47   48 1    
    95   48  110 1    
    96   48  111 1    
    97   49   50 am   BACKBONE|DICT|INTERRES
    98   49  112 1    
    99   50   51 2    
   100   50   52 1    
   101   52   53 1    
   102   52   54 1    
   103   52  113 1    
   104   53  114 1    
   105   53  115 1    
   106   53  116 1    
   107   54   55 am   BACKBONE|DICT|INTERRES
   108   54  117 1    
   109   55   56 2    
   110   55   57 1    
   111   57   58 1    
   112   57   59 1    
   113   57  118 1    
   114   58  119 1    
   115   58  120 1    
   116   58  121 1    
   117   59   60 am   BACKBONE|DICT|INTERRES
   118   59  122 1    
   119   60   61 2    
   120   60   62 1    
   121   62   63 1    
   122   62   64 1    
   123   62  123 1    
   124   63  124 1    
   125   63  125 1    
   126   63  126 1    
   127   64   65 am   BACKBONE|DICT|INTERRES
   128   64  127 1    
   129   65   66 2    
@<TRIPOS>SUBSTRUCTURE
     1 UNK         1 GROUP             0       ****    0 ROOT    
