@<TRIPOS>MOLECULE
3R134
127   129    1
SMALL
USER_CHARGES


@<TRIPOS>ATOM
      1 CA         37.1487  -44.0836  -51.0087 C.3       0 UNK        -0.1968 
      2 C          35.9652  -44.7202  -51.7218 C.2       0 UNK         0.4852 
      3 O          36.1572  -45.4423  -52.7015 O.2       0 UNK        -0.5359 
      4 N          34.7431  -44.4654  -51.2365 N.am      1 UNK        -0.4300 
      5 CA         33.4833  -44.9804  -51.7856 C.3       1 UNK         0.0863 
      6 C6         32.2858  -44.0430  -51.4710 C.3       11 UNK        -0.0953 
      7 S7         32.5425  -42.3413  -52.0850 S.3       11 UNK        -0.2369 
      8 C8         31.2004  -42.1524  -53.3135 C.3       11 UNK         0.0226 
      9 C9         31.3339  -42.9757  -54.5976 C.ar      11 UNK        -0.0699 
     10 C10        32.5342  -43.5806  -54.9921 C.ar      11 UNK        -0.0804 
     11 C11        32.6055  -44.3403  -56.1627 C.ar      11 UNK        -0.0871 
     12 C12        31.4737  -44.4565  -56.9736 C.ar      11 UNK        -0.1008 
     13 C13        30.2750  -43.8341  -56.6151 C.ar      11 UNK        -0.0735 
     14 C14        30.2133  -43.1009  -55.4256 C.ar      11 UNK        -0.0945 
     15 C15        29.0624  -43.9343  -57.5318 C.3       11 UNK         0.0169 
     16 S16        27.6443  -44.7325  -56.7178 S.3       11 UNK        -0.2669 
     17 C17        26.4944  -43.3276  -56.5256 C.3       11 UNK        -0.0850 
     18 CA         25.0704  -43.7682  -56.0939 C.3       10 UNK         0.0855 
     19 C          24.1526  -42.5279  -55.8867 C.2       10 UNK         0.5543 
     20 N          23.1013  -42.3370  -56.6745 N.am      10 UNK        -0.7343 
     21 O          24.4015  -41.7247  -54.9911 O.2       10 UNK        -0.5027 
     22 N          24.5342  -44.8040  -56.9912 N.am      10 UNK        -0.4495 
     23 C          23.4985  -45.6094  -56.7374 C.2       10 UNK         0.4903 
     24 O          22.8077  -45.5409  -55.7207 O.2       10 UNK        -0.4860 
     25 CA         23.1900  -46.6983  -57.7817 C.3       9 UNK         0.0227 
     26 CB         22.4238  -46.1200  -58.9876 C.3       9 UNK        -0.1964 
     27 N          24.3671  -47.4759  -58.1983 N.am      9 UNK        -0.4231 
     28 C          25.4453  -47.0919  -58.8958 C.2       9 UNK         0.5014 
     29 O          25.5850  -45.9602  -59.3651 O.2       9 UNK        -0.5270 
     30 CA         26.5584  -48.1477  -59.0754 C.3       8 UNK         0.0284 
     31 CB         27.7548  -47.6059  -59.8798 C.3       8 UNK        -0.1977 
     32 N          27.0506  -48.6876  -57.8004 N.am      8 UNK        -0.4342 
     33 C          26.3914  -49.5554  -57.0156 C.2       8 UNK         0.5039 
     34 O          25.2666  -49.9802  -57.2876 O.2       8 UNK        -0.5547 
     35 CA         27.0666  -50.0444  -55.7192 C.3       7 UNK         0.0281 
     36 CB         27.4595  -51.5249  -55.8446 C.3       7 UNK        -0.1963 
     37 N          28.2441  -49.2642  -55.3360 N.am      7 UNK        -0.4444 
     38 C          28.2034  -48.0323  -54.8103 C.2       7 UNK         0.5104 
     39 O          27.1569  -47.4729  -54.4829 O.2       7 UNK        -0.5100 
     40 CA         29.5437  -47.2936  -54.6232 C.3       6 UNK         0.0396 
     41 CB         29.8706  -47.1272  -53.1328 C.3       6 UNK        -0.1801 
     42 N          30.6887  -47.9083  -55.3072 N.am      6 UNK        -0.4747 
     43 C          30.8362  -47.9830  -56.6396 C.2       6 UNK         0.5012 
     44 O          29.9670  -47.6195  -57.4321 O.2       6 UNK        -0.5003 
     45 CA         32.1218  -48.6230  -57.1945 C.3       5 UNK         0.0782 
     46 C46        33.2383  -47.5944  -57.5045 C.3       11 UNK        -0.0868 
     47 S47        33.9646  -46.7613  -56.0466 S.3       11 UNK        -0.2515 
     48 C48        33.9153  -45.0109  -56.5531 C.3       11 UNK         0.0199 
     49 N          32.5858  -49.7288  -56.3513 N.am      5 UNK        -0.4607 
     50 C          32.8425  -50.9641  -56.8055 C.2       4 UNK         0.5031 
     51 O          32.7690  -51.2834  -57.9928 O.2       4 UNK        -0.5119 
     52 CA         33.2430  -52.0443  -55.7805 C.3       4 UNK         0.0263 
     53 CB         34.7712  -52.2093  -55.7504 C.3       4 UNK        -0.1967 
     54 N          32.7655  -51.7877  -54.4210 N.am      4 UNK        -0.4237 
     55 C          31.4811  -51.6796  -54.0524 C.2       3 UNK         0.4908 
     56 O          30.5339  -51.8872  -54.8090 O.2       3 UNK        -0.5102 
     57 CA         31.1989  -51.2165  -52.6099 C.3       3 UNK         0.0241 
     58 CB         30.7912  -52.4127  -51.7349 C.3       3 UNK        -0.1971 
     59 N          32.3017  -50.4932  -51.9579 N.am      3 UNK        -0.4139 
     60 C          32.8847  -49.3785  -52.4214 C.2       2 UNK         0.5016 
     61 O          32.6073  -48.8635  -53.5079 O.2       2 UNK        -0.5319 
     62 CA         34.0106  -48.7836  -51.5627 C.3       2 UNK         0.0286 
     63 CB         35.3550  -49.4351  -51.9249 C.3       2 UNK        -0.1963 
     64 N          34.1190  -47.3404  -51.7675 N.am      2 UNK        -0.4790 
     65 C          33.2442  -46.4316  -51.3214 C.2       1 UNK         0.5024 
     66 O          32.3076  -46.7016  -50.5670 O.2       1 UNK        -0.4888 
     67 H67        37.8189  -44.8558  -50.6320 H         1 UNK         0.0892 
     68 H68        37.7080  -43.4541  -51.7003 H         1 UNK         0.0892 
     69 H69        36.8345  -43.4664  -50.1671 H         1 UNK         0.0892 
     70 H70        34.6479  -43.8767  -50.4212 H         1 UNK         0.3107 
     71 H71        33.5784  -45.0395  -52.8698 H         1 UNK         0.0773 
     72 H72        32.1138  -43.9874  -50.3946 H         1 UNK         0.0680 
     73 H73        31.3672  -44.4416  -51.9047 H         1 UNK         0.0680 
     74 H74        31.1471  -41.0992  -53.5919 H         1 UNK         0.0650 
     75 H75        30.2536  -42.3887  -52.8252 H         1 UNK         0.0650 
     76 H76        33.4262  -43.4612  -54.3962 H         1 UNK         0.1397 
     77 H77        31.5246  -45.0271  -57.8898 H         1 UNK         0.1363 
     78 H78        29.2859  -42.6212  -55.1456 H         1 UNK         0.1355 
     79 H79        29.3045  -44.5144  -58.4237 H         1 UNK         0.0707 
     80 H80        28.7953  -42.9369  -57.8824 H         1 UNK         0.0707 
     81 H81        26.9185  -42.6362  -55.7952 H         1 UNK         0.1034 
     82 H82        26.4438  -42.7849  -57.4715 H         1 UNK         0.1034 
     83 H83        25.1625  -44.2327  -55.1102 H         1 UNK         0.0482 
     84 H84        22.8912  -42.9954  -57.4071 H         1 UNK         0.3460 
     85 H85        22.5120  -41.5323  -56.5302 H         1 UNK         0.3460 
     86 H86        25.0519  -44.9672  -57.8512 H         1 UNK         0.2989 
     87 H87        22.5297  -47.4182  -57.2955 H         1 UNK         0.0559 
     88 H88        23.0066  -45.3729  -59.5270 H         1 UNK         0.0848 
     89 H89        21.5008  -45.6368  -58.6646 H         1 UNK         0.0848 
     90 H90        22.1486  -46.9030  -59.6941 H         1 UNK         0.0848 
     91 H91        24.4100  -48.4259  -57.8307 H         1 UNK         0.3144 
     92 H92        26.1245  -48.9701  -59.6480 H         1 UNK         0.0727 
     93 H93        27.4410  -47.2616  -60.8661 H         1 UNK         0.0790 
     94 H94        28.2273  -46.7622  -59.3747 H         1 UNK         0.0790 
     95 H95        28.5145  -48.3730  -60.0308 H         1 UNK         0.0790 
     96 H96        27.9586  -48.3494  -57.4980 H         1 UNK         0.3215 
     97 H97        26.3243  -49.9593  -54.9225 H         1 UNK         0.0863 
     98 H98        28.2390  -51.6750  -56.5927 H         1 UNK         0.0808 
     99 H99        26.6043  -52.1363  -56.1361 H         1 UNK         0.0808 
    100 H100       27.8241  -51.9180  -54.8956 H         1 UNK         0.0808 
    101 H101       29.1483  -49.6639  -55.5459 H         1 UNK         0.3118 
    102 H102       29.4210  -46.2944  -55.0424 H         1 UNK         0.0546 
    103 H103       29.0708  -46.5997  -52.6116 H         1 UNK         0.0828 
    104 H104       30.7812  -46.5457  -52.9990 H         1 UNK         0.0828 
    105 H105       30.0076  -48.0877  -52.6366 H         1 UNK         0.0828 
    106 H106       31.4505  -48.2179  -54.7047 H         1 UNK         0.3005 
    107 H107       31.8129  -49.0302  -58.1603 H         1 UNK         0.1257 
    108 H108       32.8687  -46.8540  -58.2142 H         1 UNK         0.0775 
    109 H109       34.0527  -48.1013  -58.0242 H         1 UNK         0.0775 
    110 H110       34.7516  -44.4960  -56.0774 H         1 UNK         0.0840 
    111 H111       34.0855  -44.9196  -57.6268 H         1 UNK         0.0840 
    112 H112       32.6861  -49.5294  -55.3606 H         1 UNK         0.2987 
    113 H113       32.8002  -52.9859  -56.1120 H         1 UNK         0.0785 
    114 H114       35.2678  -51.3022  -55.4028 H         1 UNK         0.0798 
    115 H115       35.1594  -52.4320  -56.7454 H         1 UNK         0.0798 
    116 H116       35.0706  -53.0295  -55.0977 H         1 UNK         0.0798 
    117 H117       33.4703  -51.5953  -53.7253 H         1 UNK         0.3079 
    118 H118       30.3509  -50.5310  -52.6629 H         1 UNK         0.0794 
    119 H119       31.6108  -53.1222  -51.6139 H         1 UNK         0.0786 
    120 H120       29.9541  -52.9544  -52.1783 H         1 UNK         0.0786 
    121 H121       30.4744  -52.0906  -50.7427 H         1 UNK         0.0786 
    122 H122       32.6095  -50.8633  -51.0697 H         1 UNK         0.3032 
    123 H123       33.7917  -48.9698  -50.5088 H         1 UNK         0.1094 
    124 H124       36.1673  -49.0284  -51.3220 H         1 UNK         0.0794 
    125 H125       35.3322  -50.5116  -51.7501 H         1 UNK         0.0794 
    126 H126       35.6080  -49.2791  -52.9749 H         1 UNK         0.0794 
    127 H127       34.8652  -47.0122  -52.3725 H         1 UNK         0.3016 
@<TRIPOS>BOND
     1    1    2 1    
     2    1   67 1    
     3    1   68 1    
     4    1   69 1    
     5    2    3 2    
     6    2    4 am   BACKBONE|DICT|INTERRES
     7    4    5 1    
     8    4   70 1    
     9    5    6 1    
    10    5   65 1    
    11    5   71 1    
    12    6    7 1    
    13    6   72 1    
    14    6   73 1    
    15    7    8 1    
    16    8    9 1    
    17    8   74 1    
    18    8   75 1    
    19    9   10 ar   
    20    9   14 ar   
    21   10   11 ar   
    22   10   76 1    
    23   11   12 ar   
    24   11   48 1    
    25   12   13 ar   
    26   12   77 1    
    27   13   14 ar   
    28   13   15 1    
    29   14   78 1    
    30   15   16 1    
    31   15   79 1    
    32   15   80 1    
    33   16   17 1    
    34   17   18 1    
    35   17   81 1    
    36   17   82 1    
    37   18   19 1    
    38   18   22 1    
    39   18   83 1    
    40   19   20 am   BACKBONE|DICT|INTERRES
    41   19   21 2    
    42   20   84 1    
    43   20   85 1    
    44   22   23 am   BACKBONE|DICT|INTERRES
    45   22   86 1    
    46   23   24 2    
    47   23   25 1    
    48   25   26 1    
    49   25   27 1    
    50   25   87 1    
    51   26   88 1    
    52   26   89 1    
    53   26   90 1    
    54   27   28 am   BACKBONE|DICT|INTERRES
    55   27   91 1    
    56   28   29 2    
    57   28   30 1    
    58   30   31 1    
    59   30   32 1    
    60   30   92 1    
    61   31   93 1    
    62   31   94 1    
    63   31   95 1    
    64   32   33 am   BACKBONE|DICT|INTERRES
    65   32   96 1    
    66   33   34 2    
    67   33   35 1    
    68   35   36 1    
    69   35   37 1    
    70   35   97 1    
    71   36   98 1    
    72   36   99 1    
    73   36  100 1    
    74   37   38 am   BACKBONE|DICT|INTERRES
    75   37  101 1    
    76   38   39 2    
    77   38   40 1    
    78   40   41 1    
    79   40   42 1    
    80   40  102 1    
    81   41  103 1    
    82   41  104 1    
    83   41  105 1    
    84   42   43 am   BACKBONE|DICT|INTERRES
    85   42  106 1    
    86   43   44 2    
    87   43   45 1    
    88   45   46 1    
    89   45   49 1    
    90   45  107 1    
    91   46   47 1    
    92   46  108 1    
    93   46  109 1    
    94   47   48 1    
    95   48  110 1    
    96   48  111 1    
    97   49   50 am   BACKBONE|DICT|INTERRES
    98   49  112 1    
    99   50   51 2    
   100   50   52 1    
   101   52   53 1    
   102   52   54 1    
   103   52  113 1    
   104   53  114 1    
   105   53  115 1    
   106   53  116 1    
   107   54   55 am   BACKBONE|DICT|INTERRES
   108   54  117 1    
   109   55   56 2    
   110   55   57 1    
   111   57   58 1    
   112   57   59 1    
   113   57  118 1    
   114   58  119 1    
   115   58  120 1    
   116   58  121 1    
   117   59   60 am   BACKBONE|DICT|INTERRES
   118   59  122 1    
   119   60   61 2    
   120   60   62 1    
   121   62   63 1    
   122   62   64 1    
   123   62  123 1    
   124   63  124 1    
   125   63  125 1    
   126   63  126 1    
   127   64   65 am   BACKBONE|DICT|INTERRES
   128   64  127 1    
   129   65   66 2    
@<TRIPOS>SUBSTRUCTURE
     1 UNK         1 GROUP             0       ****    0 ROOT    
