@<TRIPOS>MOLECULE
3R134
127   129    1
SMALL
USER_CHARGES


@<TRIPOS>ATOM
      1 CA         33.0154  -48.6131  -59.0159 C.3       0 UNK        -0.1968 
      2 C          33.2943  -48.2467  -57.5666 C.2       0 UNK         0.4852 
      3 O          33.6834  -49.1092  -56.7770 O.2       0 UNK        -0.5359 
      4 N          33.0795  -46.9802  -57.1915 N.am      1 UNK        -0.4300 
      5 CA         33.3746  -46.4668  -55.8522 C.3       1 UNK         0.0863 
      6 C6         32.4478  -45.2705  -55.4966 C.3       11 UNK        -0.0953 
      7 S7         33.0551  -43.5678  -55.8032 S.3       11 UNK        -0.2369 
      8 C8         33.2614  -42.8776  -54.1190 C.3       11 UNK         0.0226 
      9 C9         32.0411  -43.1226  -53.2404 C.ar      11 UNK        -0.0699 
     10 C10        32.1258  -43.9957  -52.1522 C.ar      11 UNK        -0.0804 
     11 C11        30.9774  -44.3693  -51.4512 C.ar      11 UNK        -0.0871 
     12 C12        29.7437  -43.8160  -51.8053 C.ar      11 UNK        -0.1008 
     13 C13        29.6523  -42.9154  -52.8702 C.ar      11 UNK        -0.0735 
     14 C14        30.8075  -42.5574  -53.5723 C.ar      11 UNK        -0.0945 
     15 C15        28.2950  -42.3798  -53.2987 C.3       11 UNK         0.0169 
     16 S16        27.4012  -43.6004  -54.3149 S.3       11 UNK        -0.2669 
     17 C17        28.4425  -43.6643  -55.8158 C.3       11 UNK        -0.0850 
     18 CA         27.6124  -43.6116  -57.1218 C.3       10 UNK         0.0855 
     19 C          28.5322  -43.3982  -58.3623 C.2       10 UNK         0.5543 
     20 N          28.5581  -44.2840  -59.3516 N.am      10 UNK        -0.7343 
     21 O          29.2348  -42.3931  -58.4321 O.2       10 UNK        -0.5027 
     22 N          26.7069  -44.7648  -57.2268 N.am      10 UNK        -0.4495 
     23 C          25.6012  -44.7960  -57.9816 C.2       10 UNK         0.4903 
     24 O          25.1596  -43.8177  -58.5868 O.2       10 UNK        -0.4860 
     25 CA         24.8805  -46.1559  -58.0880 C.3       9 UNK         0.0227 
     26 CB         23.9606  -46.2490  -59.3238 C.3       9 UNK        -0.1964 
     27 N          25.7955  -47.3053  -58.0385 N.am      9 UNK        -0.4231 
     28 C          26.8318  -47.5551  -58.8580 C.2       9 UNK         0.5014 
     29 O          27.1338  -46.8265  -59.8042 O.2       9 UNK        -0.5270 
     30 CA         27.7054  -48.7907  -58.5654 C.3       8 UNK         0.0284 
     31 CB         29.2035  -48.4345  -58.5942 C.3       8 UNK        -0.1977 
     32 N          27.3804  -49.4018  -57.2733 N.am      8 UNK        -0.4342 
     33 C          26.5837  -50.4689  -57.1089 C.2       8 UNK         0.5039 
     34 O          26.1428  -51.1415  -58.0412 O.2       8 UNK        -0.5547 
     35 CA         26.1615  -50.8276  -55.6697 C.3       7 UNK         0.0281 
     36 CB         26.9254  -52.0571  -55.1530 C.3       7 UNK        -0.1963 
     37 N          26.3009  -49.7114  -54.7257 N.am      7 UNK        -0.4444 
     38 C          25.5310  -48.6115  -54.7607 C.2       7 UNK         0.5104 
     39 O          24.6103  -48.4614  -55.5632 O.2       7 UNK        -0.5100 
     40 CA         25.8624  -47.4570  -53.7985 C.3       6 UNK         0.0396 
     41 CB         24.9143  -47.4762  -52.5900 C.3       6 UNK        -0.1801 
     42 N          27.2473  -47.4448  -53.3250 N.am      6 UNK        -0.4747 
     43 C          28.3347  -47.2993  -54.0960 C.2       6 UNK         0.5012 
     44 O          28.2824  -47.1821  -55.3241 O.2       6 UNK        -0.5003 
     45 CA         29.7139  -47.3453  -53.3951 C.3       5 UNK         0.0782 
     46 C46        29.6300  -47.3596  -51.8393 C.3       11 UNK        -0.0868 
     47 S47        31.2519  -47.0925  -51.0502 S.3       11 UNK        -0.2515 
     48 C48        31.0705  -45.4162  -50.3524 C.3       11 UNK         0.0199 
     49 N          30.5198  -48.4520  -53.9388 N.am      5 UNK        -0.4607 
     50 C          30.1699  -49.7476  -53.9566 C.2       4 UNK         0.5031 
     51 O          29.1309  -50.1824  -53.4578 O.2       4 UNK        -0.5119 
     52 CA         31.1075  -50.7201  -54.6901 C.3       4 UNK         0.0263 
     53 CB         30.7696  -50.7487  -56.1873 C.3       4 UNK        -0.1967 
     54 N          32.5266  -50.3913  -54.5347 N.am      4 UNK        -0.4237 
     55 C          33.2838  -50.7962  -53.5060 C.2       3 UNK         0.4908 
     56 O          32.8580  -51.4503  -52.5534 O.2       3 UNK        -0.5102 
     57 CA         34.7729  -50.4124  -53.5547 C.3       3 UNK         0.0241 
     58 CB         35.5238  -51.2091  -54.6355 C.3       3 UNK        -0.1971 
     59 N          34.9609  -48.9748  -53.7656 N.am      3 UNK        -0.4139 
     60 C          34.7353  -48.0559  -52.8154 C.2       2 UNK         0.5016 
     61 O          34.4334  -48.3490  -51.6590 O.2       2 UNK        -0.5319 
     62 CA         34.8691  -46.5663  -53.1890 C.3       2 UNK         0.0286 
     63 CB         35.6806  -45.8026  -52.1263 C.3       2 UNK        -0.1963 
     64 N          35.4863  -46.3233  -54.4979 N.am      2 UNK        -0.4790 
     65 C          34.8995  -46.2227  -55.7002 C.2       1 UNK         0.5024 
     66 O          35.5656  -45.9529  -56.7006 O.2       1 UNK        -0.4888 
     67 H67        32.3631  -49.4845  -59.0631 H         1 UNK         0.0892 
     68 H68        32.5327  -47.7988  -59.5560 H         1 UNK         0.0892 
     69 H69        33.9472  -48.8572  -59.5249 H         1 UNK         0.0892 
     70 H70        32.8106  -46.2898  -57.8782 H         1 UNK         0.3107 
     71 H71        33.1083  -47.2672  -55.1620 H         1 UNK         0.0773 
     72 H72        31.4942  -45.3680  -56.0183 H         1 UNK         0.0680 
     73 H73        32.1739  -45.3673  -54.4513 H         1 UNK         0.0680 
     74 H74        33.4445  -41.8050  -54.1938 H         1 UNK         0.0650 
     75 H75        34.1557  -43.3129  -53.6714 H         1 UNK         0.0650 
     76 H76        33.0752  -44.4353  -51.8837 H         1 UNK         0.1397 
     77 H77        28.8466  -44.1097  -51.2774 H         1 UNK         0.1363 
     78 H78        30.7433  -41.8839  -54.4155 H         1 UNK         0.1355 
     79 H79        28.4008  -41.4455  -53.8524 H         1 UNK         0.0707 
     80 H80        27.6974  -42.1470  -52.4161 H         1 UNK         0.0707 
     81 H81        29.1392  -42.8263  -55.7945 H         1 UNK         0.1034 
     82 H82        29.0559  -44.5659  -55.7822 H         1 UNK         0.1034 
     83 H83        26.9922  -42.7147  -57.0683 H         1 UNK         0.0482 
     84 H84        27.9696  -45.1106  -59.3433 H         1 UNK         0.3460 
     85 H85        29.1581  -44.1122  -60.1419 H         1 UNK         0.3460 
     86 H86        27.0088  -45.6080  -56.7583 H         1 UNK         0.2989 
     87 H87        24.2494  -46.2307  -57.2016 H         1 UNK         0.0559 
     88 H88        23.1915  -45.4760  -59.3000 H         1 UNK         0.0848 
     89 H89        23.4487  -47.2103  -59.3657 H         1 UNK         0.0848 
     90 H90        24.5177  -46.1244  -60.2529 H         1 UNK         0.0848 
     91 H91        25.6056  -47.9601  -57.2877 H         1 UNK         0.3144 
     92 H92        27.5184  -49.4981  -59.3757 H         1 UNK         0.0727 
     93 H93        29.4900  -47.8007  -57.7541 H         1 UNK         0.0790 
     94 H94        29.4734  -47.9052  -59.5091 H         1 UNK         0.0790 
     95 H95        29.8123  -49.3364  -58.5700 H         1 UNK         0.0790 
     96 H96        27.6850  -48.8864  -56.4539 H         1 UNK         0.3215 
     97 H97        25.1027  -51.0939  -55.7100 H         1 UNK         0.0863 
     98 H98        26.5821  -52.3489  -54.1604 H         1 UNK         0.0808 
     99 H99        27.9977  -51.8808  -55.0962 H         1 UNK         0.0808 
    100 H100       26.7736  -52.9133  -55.8117 H         1 UNK         0.0808 
    101 H101       27.0678  -49.7607  -54.0632 H         1 UNK         0.3118 
    102 H102       25.6975  -46.5255  -54.3446 H         1 UNK         0.0546 
    103 H103       25.0502  -48.3722  -51.9831 H         1 UNK         0.0828 
    104 H104       23.8719  -47.4558  -52.9114 H         1 UNK         0.0828 
    105 H105       25.0691  -46.6076  -51.9498 H         1 UNK         0.0828 
    106 H106       27.3786  -47.5773  -52.3328 H         1 UNK         0.3005 
    107 H107       30.2033  -46.4159  -53.6879 H         1 UNK         0.1257 
    108 H108       28.9472  -46.5909  -51.4750 H         1 UNK         0.0775 
    109 H109       29.2364  -48.3113  -51.4784 H         1 UNK         0.0775 
    110 H110       30.1961  -45.3803  -49.7006 H         1 UNK         0.0840 
    111 H111       31.9320  -45.2021  -49.7181 H         1 UNK         0.0840 
    112 H112       31.3788  -48.1927  -54.3943 H         1 UNK         0.2987 
    113 H113       30.9271  -51.7195  -54.2875 H         1 UNK         0.0785 
    114 H114       29.7293  -51.0219  -56.3598 H         1 UNK         0.0798 
    115 H115       31.3872  -51.4711  -56.7211 H         1 UNK         0.0798 
    116 H116       30.9292  -49.7724  -56.6410 H         1 UNK         0.0798 
    117 H117       32.9769  -49.9079  -55.3117 H         1 UNK         0.3079 
    118 H118       35.2124  -50.6778  -52.5903 H         1 UNK         0.0794 
    119 H119       36.5932  -50.9990  -54.6091 H         1 UNK         0.0786 
    120 H120       35.1645  -50.9833  -55.6396 H         1 UNK         0.0786 
    121 H121       35.4022  -52.2822  -54.4813 H         1 UNK         0.0786 
    122 H122       35.2226  -48.6768  -54.6949 H         1 UNK         0.3032 
    123 H123       33.8596  -46.1608  -53.1757 H         1 UNK         0.1094 
    124 H124       36.6934  -46.1965  -52.0330 H         1 UNK         0.0794 
    125 H125       35.7554  -44.7419  -52.3659 H         1 UNK         0.0794 
    126 H126       35.2122  -45.8745  -51.1434 H         1 UNK         0.0794 
    127 H127       36.4873  -46.1885  -54.4704 H         1 UNK         0.3016 
@<TRIPOS>BOND
     1    1    2 1    
     2    1   67 1    
     3    1   68 1    
     4    1   69 1    
     5    2    3 2    
     6    2    4 am   BACKBONE|DICT|INTERRES
     7    4    5 1    
     8    4   70 1    
     9    5    6 1    
    10    5   65 1    
    11    5   71 1    
    12    6    7 1    
    13    6   72 1    
    14    6   73 1    
    15    7    8 1    
    16    8    9 1    
    17    8   74 1    
    18    8   75 1    
    19    9   10 ar   
    20    9   14 ar   
    21   10   11 ar   
    22   10   76 1    
    23   11   12 ar   
    24   11   48 1    
    25   12   13 ar   
    26   12   77 1    
    27   13   14 ar   
    28   13   15 1    
    29   14   78 1    
    30   15   16 1    
    31   15   79 1    
    32   15   80 1    
    33   16   17 1    
    34   17   18 1    
    35   17   81 1    
    36   17   82 1    
    37   18   19 1    
    38   18   22 1    
    39   18   83 1    
    40   19   20 am   BACKBONE|DICT|INTERRES
    41   19   21 2    
    42   20   84 1    
    43   20   85 1    
    44   22   23 am   BACKBONE|DICT|INTERRES
    45   22   86 1    
    46   23   24 2    
    47   23   25 1    
    48   25   26 1    
    49   25   27 1    
    50   25   87 1    
    51   26   88 1    
    52   26   89 1    
    53   26   90 1    
    54   27   28 am   BACKBONE|DICT|INTERRES
    55   27   91 1    
    56   28   29 2    
    57   28   30 1    
    58   30   31 1    
    59   30   32 1    
    60   30   92 1    
    61   31   93 1    
    62   31   94 1    
    63   31   95 1    
    64   32   33 am   BACKBONE|DICT|INTERRES
    65   32   96 1    
    66   33   34 2    
    67   33   35 1    
    68   35   36 1    
    69   35   37 1    
    70   35   97 1    
    71   36   98 1    
    72   36   99 1    
    73   36  100 1    
    74   37   38 am   BACKBONE|DICT|INTERRES
    75   37  101 1    
    76   38   39 2    
    77   38   40 1    
    78   40   41 1    
    79   40   42 1    
    80   40  102 1    
    81   41  103 1    
    82   41  104 1    
    83   41  105 1    
    84   42   43 am   BACKBONE|DICT|INTERRES
    85   42  106 1    
    86   43   44 2    
    87   43   45 1    
    88   45   46 1    
    89   45   49 1    
    90   45  107 1    
    91   46   47 1    
    92   46  108 1    
    93   46  109 1    
    94   47   48 1    
    95   48  110 1    
    96   48  111 1    
    97   49   50 am   BACKBONE|DICT|INTERRES
    98   49  112 1    
    99   50   51 2    
   100   50   52 1    
   101   52   53 1    
   102   52   54 1    
   103   52  113 1    
   104   53  114 1    
   105   53  115 1    
   106   53  116 1    
   107   54   55 am   BACKBONE|DICT|INTERRES
   108   54  117 1    
   109   55   56 2    
   110   55   57 1    
   111   57   58 1    
   112   57   59 1    
   113   57  118 1    
   114   58  119 1    
   115   58  120 1    
   116   58  121 1    
   117   59   60 am   BACKBONE|DICT|INTERRES
   118   59  122 1    
   119   60   61 2    
   120   60   62 1    
   121   62   63 1    
   122   62   64 1    
   123   62  123 1    
   124   63  124 1    
   125   63  125 1    
   126   63  126 1    
   127   64   65 am   BACKBONE|DICT|INTERRES
   128   64  127 1    
   129   65   66 2    
@<TRIPOS>SUBSTRUCTURE
     1 UNK         1 GROUP             0       ****    0 ROOT    
