@<TRIPOS>MOLECULE
3R134
127   129    1
SMALL
USER_CHARGES


@<TRIPOS>ATOM
      1 CA         29.8543  -46.3738  -60.1147 C.3       0 UNK        -0.1968 
      2 C          31.0106  -46.4368  -59.1293 C.2       0 UNK         0.4852 
      3 O          32.1669  -46.3642  -59.5473 O.2       0 UNK        -0.5359 
      4 N          30.6968  -46.5864  -57.8346 N.am      1 UNK        -0.4300 
      5 CA         31.6200  -46.7925  -56.7160 C.3       1 UNK         0.0863 
      6 C6         32.4723  -45.5328  -56.4058 C.3       11 UNK        -0.0953 
      7 S7         33.2726  -45.6060  -54.7670 S.3       11 UNK        -0.2369 
      8 C8         33.5236  -43.8423  -54.4099 C.3       11 UNK         0.0226 
      9 C9         32.3540  -43.2640  -53.6308 C.ar      11 UNK        -0.0699 
     10 C10        32.2935  -43.4366  -52.2460 C.ar      11 UNK        -0.0804 
     11 C11        31.2303  -42.9096  -51.5069 C.ar      11 UNK        -0.0871 
     12 C12        30.2307  -42.1866  -52.1658 C.ar      11 UNK        -0.1008 
     13 C13        30.2889  -41.9930  -53.5499 C.ar      11 UNK        -0.0735 
     14 C14        31.3491  -42.5411  -54.2791 C.ar      11 UNK        -0.0945 
     15 C15        29.2321  -41.1504  -54.2505 C.3       11 UNK         0.0169 
     16 S16        27.6175  -41.9839  -54.3557 S.3       11 UNK        -0.2669 
     17 C17        27.9567  -43.3956  -55.4603 C.3       11 UNK        -0.0850 
     18 CA         27.4991  -43.1587  -56.9336 C.3       10 UNK         0.0855 
     19 C          28.6633  -42.7575  -57.8941 C.2       10 UNK         0.5543 
     20 N          28.5476  -43.0038  -59.1936 N.am      10 UNK        -0.7343 
     21 O          29.6737  -42.2021  -57.4735 O.2       10 UNK        -0.5027 
     22 N          26.6435  -44.2425  -57.4578 N.am      10 UNK        -0.4495 
     23 C          27.0093  -45.5237  -57.5930 C.2       10 UNK         0.4903 
     24 O          28.0615  -45.9855  -57.1480 O.2       10 UNK        -0.4860 
     25 CA         26.0566  -46.4327  -58.3837 C.3       9 UNK         0.0227 
     26 CB         25.8925  -45.9276  -59.8357 C.3       9 UNK        -0.1964 
     27 N          26.5855  -47.7977  -58.3633 N.am      9 UNK        -0.4231 
     28 C          25.9867  -48.9056  -58.8138 C.2       9 UNK         0.5014 
     29 O          24.8664  -48.9221  -59.3254 O.2       9 UNK        -0.5270 
     30 CA         26.7475  -50.2342  -58.6458 C.3       8 UNK         0.0284 
     31 CB         27.9288  -50.3500  -59.6319 C.3       8 UNK        -0.1977 
     32 N          27.1418  -50.4928  -57.2543 N.am      8 UNK        -0.4342 
     33 C          28.0709  -49.8603  -56.5282 C.2       8 UNK         0.5039 
     34 O          28.8609  -49.0263  -56.9796 O.2       8 UNK        -0.5547 
     35 CA         28.0798  -50.1621  -55.0250 C.3       7 UNK         0.0281 
     36 CB         29.3749  -50.8586  -54.5912 C.3       7 UNK        -0.1963 
     37 N          27.9307  -48.9002  -54.3054 N.am      7 UNK        -0.4444 
     38 C          26.7627  -48.2534  -54.1835 C.2       7 UNK         0.5104 
     39 O          25.6848  -48.7401  -54.5303 O.2       7 UNK        -0.5100 
     40 CA         26.7884  -46.8118  -53.6389 C.3       6 UNK         0.0396 
     41 CB         25.5810  -46.4992  -52.7300 C.3       6 UNK        -0.1801 
     42 N          28.0518  -46.4109  -53.0028 N.am      6 UNK        -0.4747 
     43 C          28.5781  -46.9173  -51.8786 C.2       6 UNK         0.5012 
     44 O          28.0503  -47.8063  -51.2067 O.2       6 UNK        -0.5003 
     45 CA         29.9351  -46.3428  -51.4292 C.3       5 UNK         0.0782 
     46 C46        29.7545  -45.5283  -50.1225 C.3       11 UNK        -0.0868 
     47 S47        31.3160  -44.8342  -49.4860 S.3       11 UNK        -0.2515 
     48 C48        31.1827  -43.0884  -49.9943 C.3       11 UNK         0.0199 
     49 N          30.9213  -47.4178  -51.2847 N.am      5 UNK        -0.4607 
     50 C          31.3431  -48.2199  -52.2695 C.2       4 UNK         0.5031 
     51 O          30.9659  -48.1367  -53.4418 O.2       4 UNK        -0.5119 
     52 CA         32.3381  -49.3117  -51.8631 C.3       4 UNK         0.0263 
     53 CB         31.6202  -50.4867  -51.1698 C.3       4 UNK        -0.1967 
     54 N          33.0546  -49.7733  -53.0493 N.am      4 UNK        -0.4237 
     55 C          34.1995  -50.4670  -53.0453 C.2       3 UNK         0.4908 
     56 O          34.7630  -50.8285  -52.0105 O.2       3 UNK        -0.5102 
     57 CA         34.8674  -50.7797  -54.4003 C.3       3 UNK         0.0241 
     58 CB         35.4387  -52.2132  -54.4564 C.3       3 UNK        -0.1971 
     59 N          34.0441  -50.4848  -55.5801 N.am      3 UNK        -0.4139 
     60 C          32.9492  -51.1189  -56.0217 C.2       2 UNK         0.5016 
     61 O          32.4314  -52.0830  -55.4569 O.2       2 UNK        -0.5319 
     62 CA         32.3223  -50.5422  -57.3080 C.3       2 UNK         0.0286 
     63 CB         31.2573  -51.4657  -57.9260 C.3       2 UNK        -0.1963 
     64 N          31.7405  -49.2140  -57.0881 N.am      2 UNK        -0.4790 
     65 C          32.4427  -48.0836  -56.9245 C.2       1 UNK         0.5024 
     66 O          33.6755  -48.0484  -56.9685 O.2       1 UNK        -0.4888 
     67 H67        28.9600  -46.8392  -59.7045 H         1 UNK         0.0892 
     68 H68        29.6269  -45.3395  -60.3668 H         1 UNK         0.0892 
     69 H69        30.1100  -46.9015  -61.0330 H         1 UNK         0.0892 
     70 H70        29.7127  -46.5942  -57.5687 H         1 UNK         0.3107 
     71 H71        30.9789  -46.9751  -55.8522 H         1 UNK         0.0773 
     72 H72        31.8298  -44.6513  -56.4293 H         1 UNK         0.0680 
     73 H73        33.2354  -45.3729  -57.1693 H         1 UNK         0.0680 
     74 H74        33.6879  -43.2904  -55.3367 H         1 UNK         0.0650 
     75 H75        34.4385  -43.7321  -53.8259 H         1 UNK         0.0650 
     76 H76        33.0749  -43.9895  -51.7421 H         1 UNK         0.1397 
     77 H77        29.4117  -41.7586  -51.6036 H         1 UNK         0.1363 
     78 H78        31.3989  -42.3929  -55.3495 H         1 UNK         0.1355 
     79 H79        29.1035  -40.2177  -53.6996 H         1 UNK         0.0707 
     80 H80        29.5598  -40.8618  -55.2493 H         1 UNK         0.0707 
     81 H81        29.0009  -43.7058  -55.3985 H         1 UNK         0.1034 
     82 H82        27.3966  -44.2190  -55.0283 H         1 UNK         0.1034 
     83 H83        26.8431  -42.2877  -56.9421 H         1 UNK         0.0482 
     84 H84        27.7142  -43.4273  -59.5653 H         1 UNK         0.3460 
     85 H85        29.2935  -42.7249  -59.8106 H         1 UNK         0.3460 
     86 H86        25.7556  -43.9470  -57.8380 H         1 UNK         0.2989 
     87 H87        25.0885  -46.4299  -57.8798 H         1 UNK         0.0559 
     88 H88        25.4935  -44.9136  -59.8659 H         1 UNK         0.0848 
     89 H89        25.1977  -46.5457  -60.4035 H         1 UNK         0.0848 
     90 H90        26.8405  -45.9210  -60.3732 H         1 UNK         0.0848 
     91 H91        27.4851  -47.8976  -57.8944 H         1 UNK         0.3144 
     92 H92        26.0444  -51.0296  -58.8986 H         1 UNK         0.0727 
     93 H93        28.4293  -51.3132  -59.5357 H         1 UNK         0.0790 
     94 H94        28.6744  -49.5685  -59.4851 H         1 UNK         0.0790 
     95 H95        27.5796  -50.2681  -60.6618 H         1 UNK         0.0790 
     96 H96        26.5331  -51.1345  -56.7641 H         1 UNK         0.3215 
     97 H97        27.2433  -50.8178  -54.7729 H         1 UNK         0.0863 
     98 H98        29.3770  -51.0410  -53.5180 H         1 UNK         0.0808 
     99 H99        30.2563  -50.2663  -54.8339 H         1 UNK         0.0808 
    100 H100       29.4842  -51.8262  -55.0815 H         1 UNK         0.0808 
    101 H101       28.7856  -48.4255  -54.0416 H         1 UNK         0.3118 
    102 H102       26.6838  -46.1928  -54.5270 H         1 UNK         0.0546 
    103 H103       24.6407  -46.6446  -53.2631 H         1 UNK         0.0828 
    104 H104       25.5988  -45.4643  -52.3887 H         1 UNK         0.0828 
    105 H105       25.5549  -47.1436  -51.8511 H         1 UNK         0.0828 
    106 H106       28.5784  -45.7058  -53.4993 H         1 UNK         0.3005 
    107 H107       30.3073  -45.6699  -52.2053 H         1 UNK         0.1257 
    108 H108       29.3326  -46.1567  -49.3354 H         1 UNK         0.0775 
    109 H109       29.0388  -44.7177  -50.2744 H         1 UNK         0.0775 
    110 H110       30.2692  -42.6631  -49.5757 H         1 UNK         0.0840 
    111 H111       32.0094  -42.5313  -49.5516 H         1 UNK         0.0840 
    112 H112       31.2718  -47.5622  -50.3493 H         1 UNK         0.2987 
    113 H113       33.0586  -48.8681  -51.1725 H         1 UNK         0.0785 
    114 H114       32.3321  -51.2093  -50.7712 H         1 UNK         0.0798 
    115 H115       30.9618  -51.0168  -51.8564 H         1 UNK         0.0798 
    116 H116       31.0118  -50.1431  -50.3323 H         1 UNK         0.0798 
    117 H117       32.6466  -49.4729  -53.9256 H         1 UNK         0.3079 
    118 H118       35.7144  -50.0952  -54.4657 H         1 UNK         0.0794 
    119 H119       36.1848  -52.3689  -53.6762 H         1 UNK         0.0786 
    120 H120       35.9268  -52.4098  -55.4110 H         1 UNK         0.0786 
    121 H121       34.6625  -52.9655  -54.3138 H         1 UNK         0.0786 
    122 H122       34.3069  -49.6465  -56.0937 H         1 UNK         0.3032 
    123 H123       33.1278  -50.4473  -58.0402 H         1 UNK         0.1094 
    124 H124       30.8943  -51.0684  -58.8737 H         1 UNK         0.0794 
    125 H125       31.6684  -52.4560  -58.1261 H         1 UNK         0.0794 
    126 H126       30.3991  -51.5972  -57.2691 H         1 UNK         0.0794 
    127 H127       30.7228  -49.1572  -57.0518 H         1 UNK         0.3016 
@<TRIPOS>BOND
     1    1    2 1    
     2    1   67 1    
     3    1   68 1    
     4    1   69 1    
     5    2    3 2    
     6    2    4 am   BACKBONE|DICT|INTERRES
     7    4    5 1    
     8    4   70 1    
     9    5    6 1    
    10    5   65 1    
    11    5   71 1    
    12    6    7 1    
    13    6   72 1    
    14    6   73 1    
    15    7    8 1    
    16    8    9 1    
    17    8   74 1    
    18    8   75 1    
    19    9   10 ar   
    20    9   14 ar   
    21   10   11 ar   
    22   10   76 1    
    23   11   12 ar   
    24   11   48 1    
    25   12   13 ar   
    26   12   77 1    
    27   13   14 ar   
    28   13   15 1    
    29   14   78 1    
    30   15   16 1    
    31   15   79 1    
    32   15   80 1    
    33   16   17 1    
    34   17   18 1    
    35   17   81 1    
    36   17   82 1    
    37   18   19 1    
    38   18   22 1    
    39   18   83 1    
    40   19   20 am   BACKBONE|DICT|INTERRES
    41   19   21 2    
    42   20   84 1    
    43   20   85 1    
    44   22   23 am   BACKBONE|DICT|INTERRES
    45   22   86 1    
    46   23   24 2    
    47   23   25 1    
    48   25   26 1    
    49   25   27 1    
    50   25   87 1    
    51   26   88 1    
    52   26   89 1    
    53   26   90 1    
    54   27   28 am   BACKBONE|DICT|INTERRES
    55   27   91 1    
    56   28   29 2    
    57   28   30 1    
    58   30   31 1    
    59   30   32 1    
    60   30   92 1    
    61   31   93 1    
    62   31   94 1    
    63   31   95 1    
    64   32   33 am   BACKBONE|DICT|INTERRES
    65   32   96 1    
    66   33   34 2    
    67   33   35 1    
    68   35   36 1    
    69   35   37 1    
    70   35   97 1    
    71   36   98 1    
    72   36   99 1    
    73   36  100 1    
    74   37   38 am   BACKBONE|DICT|INTERRES
    75   37  101 1    
    76   38   39 2    
    77   38   40 1    
    78   40   41 1    
    79   40   42 1    
    80   40  102 1    
    81   41  103 1    
    82   41  104 1    
    83   41  105 1    
    84   42   43 am   BACKBONE|DICT|INTERRES
    85   42  106 1    
    86   43   44 2    
    87   43   45 1    
    88   45   46 1    
    89   45   49 1    
    90   45  107 1    
    91   46   47 1    
    92   46  108 1    
    93   46  109 1    
    94   47   48 1    
    95   48  110 1    
    96   48  111 1    
    97   49   50 am   BACKBONE|DICT|INTERRES
    98   49  112 1    
    99   50   51 2    
   100   50   52 1    
   101   52   53 1    
   102   52   54 1    
   103   52  113 1    
   104   53  114 1    
   105   53  115 1    
   106   53  116 1    
   107   54   55 am   BACKBONE|DICT|INTERRES
   108   54  117 1    
   109   55   56 2    
   110   55   57 1    
   111   57   58 1    
   112   57   59 1    
   113   57  118 1    
   114   58  119 1    
   115   58  120 1    
   116   58  121 1    
   117   59   60 am   BACKBONE|DICT|INTERRES
   118   59  122 1    
   119   60   61 2    
   120   60   62 1    
   121   62   63 1    
   122   62   64 1    
   123   62  123 1    
   124   63  124 1    
   125   63  125 1    
   126   63  126 1    
   127   64   65 am   BACKBONE|DICT|INTERRES
   128   64  127 1    
   129   65   66 2    
@<TRIPOS>SUBSTRUCTURE
     1 UNK         1 GROUP             0       ****    0 ROOT    
