@<TRIPOS>MOLECULE
3R134
127   129    1
SMALL
USER_CHARGES


@<TRIPOS>ATOM
      1 CA         32.2832  -46.4377  -50.2641 C.3       0 UNK        -0.1968 
      2 C          32.9791  -46.4534  -51.6163 C.2       0 UNK         0.4852 
      3 O          32.3389  -46.7805  -52.6158 O.2       0 UNK        -0.5359 
      4 N          34.2784  -46.1162  -51.6409 N.am      1 UNK        -0.4300 
      5 CA         35.1427  -45.9999  -52.8270 C.3       1 UNK         0.0863 
      6 C6         34.7520  -44.8132  -53.7478 C.3       11 UNK        -0.0953 
      7 S7         34.9233  -43.2242  -52.8700 S.3       11 UNK        -0.2369 
      8 C8         34.1941  -42.0625  -54.0672 C.3       11 UNK         0.0226 
      9 C9         32.6989  -42.2721  -54.2791 C.ar      11 UNK        -0.0699 
     10 C10        31.8211  -42.3296  -53.1907 C.ar      11 UNK        -0.0804 
     11 C11        30.4464  -42.4977  -53.3875 C.ar      11 UNK        -0.0871 
     12 C12        29.9494  -42.5798  -54.6925 C.ar      11 UNK        -0.1008 
     13 C13        30.8161  -42.5283  -55.7873 C.ar      11 UNK        -0.0735 
     14 C14        32.1887  -42.3782  -55.5759 C.ar      11 UNK        -0.0945 
     15 C15        30.2663  -42.6388  -57.1977 C.3       11 UNK         0.0169 
     16 S16        30.1167  -44.3801  -57.6862 S.3       11 UNK        -0.2669 
     17 C17        29.2538  -44.2047  -59.2842 C.3       11 UNK        -0.0850 
     18 CA         27.7126  -44.0693  -59.1475 C.3       10 UNK         0.0855 
     19 C          27.0520  -44.0070  -60.5570 C.2       10 UNK         0.5543 
     20 N          26.2937  -45.0095  -60.9879 N.am      10 UNK        -0.7343 
     21 O          27.2367  -43.0264  -61.2732 O.2       10 UNK        -0.5027 
     22 N          27.1598  -45.0938  -58.2527 N.am      10 UNK        -0.4495 
     23 C          25.9139  -45.1306  -57.7648 C.2       10 UNK         0.4903 
     24 O          25.0913  -44.2256  -57.9110 O.2       10 UNK        -0.4860 
     25 CA         25.5292  -46.4126  -56.9980 C.3       9 UNK         0.0227 
     26 CB         24.0161  -46.7094  -57.0463 C.3       9 UNK        -0.1964 
     27 N          26.3083  -47.5848  -57.4231 N.am      9 UNK        -0.4231 
     28 C          26.3681  -48.1155  -58.6560 C.2       9 UNK         0.5014 
     29 O          25.7062  -47.7111  -59.6133 O.2       9 UNK        -0.5270 
     30 CA         27.3818  -49.2457  -58.8796 C.3       8 UNK         0.0284 
     31 CB         28.6806  -48.6813  -59.4830 C.3       8 UNK        -0.1977 
     32 N          27.6938  -49.9567  -57.6369 N.am      8 UNK        -0.4342 
     33 C          27.1239  -51.1118  -57.2720 C.2       8 UNK         0.5039 
     34 O          26.2791  -51.7057  -57.9440 O.2       8 UNK        -0.5547 
     35 CA         27.5836  -51.7225  -55.9412 C.3       7 UNK         0.0281 
     36 CB         28.9581  -52.3943  -56.1000 C.3       7 UNK        -0.1963 
     37 N          27.6362  -50.7589  -54.8410 N.am      7 UNK        -0.4444 
     38 C          26.5630  -50.2557  -54.2153 C.2       7 UNK         0.5104 
     39 O          25.4025  -50.4562  -54.5735 O.2       7 UNK        -0.5100 
     40 CA         26.8259  -49.4136  -52.9573 C.3       6 UNK         0.0396 
     41 CB         27.2557  -50.3125  -51.7856 C.3       6 UNK        -0.1801 
     42 N          27.8571  -48.4048  -53.1945 N.am      6 UNK        -0.4747 
     43 C          27.6149  -47.1119  -53.4577 C.2       6 UNK         0.5012 
     44 O          26.4845  -46.6249  -53.4791 O.2       6 UNK        -0.5003 
     45 CA         28.8343  -46.2087  -53.7643 C.3       5 UNK         0.0782 
     46 C46        29.2593  -45.3944  -52.5137 C.3       11 UNK        -0.0868 
     47 S47        28.2512  -43.8885  -52.2921 S.3       11 UNK        -0.2515 
     48 C48        29.5143  -42.5727  -52.1807 C.3       11 UNK         0.0199 
     49 N          29.9693  -46.9471  -54.3284 N.am      5 UNK        -0.4607 
     50 C          29.9438  -47.6365  -55.4778 C.2       4 UNK         0.5031 
     51 O          28.9539  -47.7244  -56.2060 O.2       4 UNK        -0.5119 
     52 CA         31.2065  -48.4338  -55.8385 C.3       4 UNK         0.0263 
     53 CB         32.1715  -47.5566  -56.6482 C.3       4 UNK        -0.1967 
     54 N          31.8949  -48.9948  -54.6693 N.am      4 UNK        -0.4237 
     55 C          31.3446  -49.8601  -53.8012 C.2       3 UNK         0.4908 
     56 O          30.1838  -50.2584  -53.9022 O.2       3 UNK        -0.5102 
     57 CA         32.1708  -50.3289  -52.5878 C.3       3 UNK         0.0241 
     58 CB         31.9741  -51.8326  -52.3004 C.3       3 UNK        -0.1971 
     59 N          33.5929  -49.9762  -52.6380 N.am      3 UNK        -0.4139 
     60 C          34.5351  -50.4127  -53.4875 C.2       2 UNK         0.5016 
     61 O          34.3446  -51.2580  -54.3629 O.2       2 UNK        -0.5319 
     62 CA         35.9218  -49.7533  -53.3288 C.3       2 UNK         0.0286 
     63 CB         36.8057  -49.8999  -54.5866 C.3       2 UNK        -0.1963 
     64 N          35.8298  -48.3447  -52.9057 N.am      2 UNK        -0.4790 
     65 C          35.2378  -47.3432  -53.5780 C.2       1 UNK         0.5024 
     66 O          34.7333  -47.4729  -54.6936 O.2       1 UNK        -0.4888 
     67 H67        32.9820  -46.2627  -49.4464 H         1 UNK         0.0892 
     68 H68        31.7852  -47.3904  -50.0868 H         1 UNK         0.0892 
     69 H69        31.5304  -45.6503  -50.2424 H         1 UNK         0.0892 
     70 H70        34.7266  -45.8673  -50.7702 H         1 UNK         0.3107 
     71 H71        36.1490  -45.7993  -52.4550 H         1 UNK         0.0773 
     72 H72        35.3925  -44.7804  -54.6310 H         1 UNK         0.0680 
     73 H73        33.7277  -44.9224  -54.1094 H         1 UNK         0.0680 
     74 H74        34.3545  -41.0455  -53.7075 H         1 UNK         0.0650 
     75 H75        34.7384  -42.1460  -55.0092 H         1 UNK         0.0650 
     76 H76        32.2148  -42.2467  -52.1869 H         1 UNK         0.1397 
     77 H77        28.8875  -42.6996  -54.8586 H         1 UNK         0.1363 
     78 H78        32.8579  -42.3377  -56.4245 H         1 UNK         0.1355 
     79 H79        30.9133  -42.1152  -57.9033 H         1 UNK         0.0707 
     80 H80        29.2896  -42.1558  -57.2523 H         1 UNK         0.0707 
     81 H81        29.5019  -45.0819  -59.8851 H         1 UNK         0.1034 
     82 H82        29.6688  -43.3491  -59.8209 H         1 UNK         0.1034 
     83 H83        27.5060  -43.1065  -58.6771 H         1 UNK         0.0482 
     84 H84        25.8742  -44.9499  -61.9019 H         1 UNK         0.3460 
     85 H85        26.1271  -45.8260  -60.4113 H         1 UNK         0.3460 
     86 H86        27.7757  -45.8653  -58.0419 H         1 UNK         0.2989 
     87 H87        25.7968  -46.2292  -55.9585 H         1 UNK         0.0559 
     88 H88        23.4433  -45.8949  -56.6014 H         1 UNK         0.0848 
     89 H89        23.7732  -47.6152  -56.4907 H         1 UNK         0.0848 
     90 H90        23.6598  -46.8359  -58.0690 H         1 UNK         0.0848 
     91 H91        26.9808  -47.9247  -56.7446 H         1 UNK         0.3144 
     92 H92        26.9488  -49.9344  -59.6082 H         1 UNK         0.0727 
     93 H93        29.4004  -49.4749  -59.6836 H         1 UNK         0.0790 
     94 H94        29.1591  -47.9546  -58.8261 H         1 UNK         0.0790 
     95 H95        28.4822  -48.1786  -60.4307 H         1 UNK         0.0790 
     96 H96        28.3461  -49.5031  -57.0067 H         1 UNK         0.3215 
     97 H97        26.8634  -52.4980  -55.6705 H         1 UNK         0.0863 
     98 H98        29.2575  -52.9040  -55.1839 H         1 UNK         0.0808 
     99 H99        29.7373  -51.6725  -56.3476 H         1 UNK         0.0808 
    100 H100       28.9390  -53.1409  -56.8952 H         1 UNK         0.0808 
    101 H101       28.5633  -50.5527  -54.4678 H         1 UNK         0.3118 
    102 H102       25.8864  -48.9335  -52.6753 H         1 UNK         0.0546 
    103 H103       26.5065  -51.0804  -51.5883 H         1 UNK         0.0828 
    104 H104       27.3751  -49.7348  -50.8691 H         1 UNK         0.0828 
    105 H105       28.1998  -50.8215  -51.9839 H         1 UNK         0.0828 
    106 H106       28.8115  -48.7390  -53.2539 H         1 UNK         0.3005 
    107 H107       28.5207  -45.5112  -54.5448 H         1 UNK         0.1257 
    108 H108       30.3011  -45.0880  -52.6081 H         1 UNK         0.0775 
    109 H109       29.2173  -45.9977  -51.6047 H         1 UNK         0.0775 
    110 H110       29.0099  -41.6121  -52.0698 H         1 UNK         0.0840 
    111 H111       30.0858  -42.7272  -51.2640 H         1 UNK         0.0840 
    112 H112       30.8319  -46.9348  -53.7868 H         1 UNK         0.2987 
    113 H113       30.8989  -49.2715  -56.4672 H         1 UNK         0.0785 
    114 H114       32.5018  -46.6888  -56.0749 H         1 UNK         0.0798 
    115 H115       31.6924  -47.1838  -57.5546 H         1 UNK         0.0798 
    116 H116       33.0570  -48.1143  -56.9534 H         1 UNK         0.0798 
    117 H117       32.8310  -48.6507  -54.4904 H         1 UNK         0.3079 
    118 H118       31.7647  -49.7805  -51.7366 H         1 UNK         0.0794 
    119 H119       32.2820  -52.4504  -53.1444 H         1 UNK         0.0786 
    120 H120       30.9261  -52.0601  -52.1008 H         1 UNK         0.0786 
    121 H121       32.5436  -52.1483  -51.4264 H         1 UNK         0.0786 
    122 H122       33.8761  -49.2602  -51.9845 H         1 UNK         0.3032 
    123 H123       36.4160  -50.2909  -52.5175 H         1 UNK         0.1094 
    124 H124       36.9895  -50.9508  -54.8136 H         1 UNK         0.0794 
    125 H125       36.3388  -49.4571  -55.4669 H         1 UNK         0.0794 
    126 H126       37.7770  -49.4257  -54.4470 H         1 UNK         0.0794 
    127 H127       36.2064  -48.1399  -51.9893 H         1 UNK         0.3016 
@<TRIPOS>BOND
     1    1    2 1    
     2    1   67 1    
     3    1   68 1    
     4    1   69 1    
     5    2    3 2    
     6    2    4 am   BACKBONE|DICT|INTERRES
     7    4    5 1    
     8    4   70 1    
     9    5    6 1    
    10    5   65 1    
    11    5   71 1    
    12    6    7 1    
    13    6   72 1    
    14    6   73 1    
    15    7    8 1    
    16    8    9 1    
    17    8   74 1    
    18    8   75 1    
    19    9   10 ar   
    20    9   14 ar   
    21   10   11 ar   
    22   10   76 1    
    23   11   12 ar   
    24   11   48 1    
    25   12   13 ar   
    26   12   77 1    
    27   13   14 ar   
    28   13   15 1    
    29   14   78 1    
    30   15   16 1    
    31   15   79 1    
    32   15   80 1    
    33   16   17 1    
    34   17   18 1    
    35   17   81 1    
    36   17   82 1    
    37   18   19 1    
    38   18   22 1    
    39   18   83 1    
    40   19   20 am   BACKBONE|DICT|INTERRES
    41   19   21 2    
    42   20   84 1    
    43   20   85 1    
    44   22   23 am   BACKBONE|DICT|INTERRES
    45   22   86 1    
    46   23   24 2    
    47   23   25 1    
    48   25   26 1    
    49   25   27 1    
    50   25   87 1    
    51   26   88 1    
    52   26   89 1    
    53   26   90 1    
    54   27   28 am   BACKBONE|DICT|INTERRES
    55   27   91 1    
    56   28   29 2    
    57   28   30 1    
    58   30   31 1    
    59   30   32 1    
    60   30   92 1    
    61   31   93 1    
    62   31   94 1    
    63   31   95 1    
    64   32   33 am   BACKBONE|DICT|INTERRES
    65   32   96 1    
    66   33   34 2    
    67   33   35 1    
    68   35   36 1    
    69   35   37 1    
    70   35   97 1    
    71   36   98 1    
    72   36   99 1    
    73   36  100 1    
    74   37   38 am   BACKBONE|DICT|INTERRES
    75   37  101 1    
    76   38   39 2    
    77   38   40 1    
    78   40   41 1    
    79   40   42 1    
    80   40  102 1    
    81   41  103 1    
    82   41  104 1    
    83   41  105 1    
    84   42   43 am   BACKBONE|DICT|INTERRES
    85   42  106 1    
    86   43   44 2    
    87   43   45 1    
    88   45   46 1    
    89   45   49 1    
    90   45  107 1    
    91   46   47 1    
    92   46  108 1    
    93   46  109 1    
    94   47   48 1    
    95   48  110 1    
    96   48  111 1    
    97   49   50 am   BACKBONE|DICT|INTERRES
    98   49  112 1    
    99   50   51 2    
   100   50   52 1    
   101   52   53 1    
   102   52   54 1    
   103   52  113 1    
   104   53  114 1    
   105   53  115 1    
   106   53  116 1    
   107   54   55 am   BACKBONE|DICT|INTERRES
   108   54  117 1    
   109   55   56 2    
   110   55   57 1    
   111   57   58 1    
   112   57   59 1    
   113   57  118 1    
   114   58  119 1    
   115   58  120 1    
   116   58  121 1    
   117   59   60 am   BACKBONE|DICT|INTERRES
   118   59  122 1    
   119   60   61 2    
   120   60   62 1    
   121   62   63 1    
   122   62   64 1    
   123   62  123 1    
   124   63  124 1    
   125   63  125 1    
   126   63  126 1    
   127   64   65 am   BACKBONE|DICT|INTERRES
   128   64  127 1    
   129   65   66 2    
@<TRIPOS>SUBSTRUCTURE
     1 UNK         1 GROUP             0       ****    0 ROOT    
