@<TRIPOS>MOLECULE
3R134
127   129    1
SMALL
USER_CHARGES


@<TRIPOS>ATOM
      1 CA         35.6022  -47.7273  -54.8422 C.3       0 UNK        -0.1968 
      2 C          34.3897  -47.2036  -54.0909 C.2       0 UNK         0.4852 
      3 O          33.3103  -47.7985  -54.1717 O.2       0 UNK        -0.5359 
      4 N          34.5762  -46.0978  -53.3579 N.am      1 UNK        -0.4300 
      5 CA         33.5503  -45.3614  -52.6073 C.3       1 UNK         0.0863 
      6 C6         34.1143  -44.0567  -51.9782 C.3       11 UNK        -0.0953 
      7 S7         35.1000  -43.0339  -53.1286 S.3       11 UNK        -0.2369 
      8 C8         33.8832  -41.8001  -53.6911 C.3       11 UNK         0.0226 
      9 C9         32.7213  -42.4503  -54.4262 C.ar      11 UNK        -0.0699 
     10 C10        32.9488  -43.1591  -55.6078 C.ar      11 UNK        -0.0804 
     11 C11        31.9014  -43.8252  -56.2472 C.ar      11 UNK        -0.0871 
     12 C12        30.6112  -43.7447  -55.7150 C.ar      11 UNK        -0.1008 
     13 C13        30.3553  -43.0028  -54.5526 C.ar      11 UNK        -0.0735 
     14 C14        31.4239  -42.3655  -53.9139 C.ar      11 UNK        -0.0945 
     15 C15        28.9585  -42.8417  -53.9433 C.3       11 UNK         0.0169 
     16 S16        27.6758  -43.9981  -54.5355 S.3       11 UNK        -0.2669 
     17 C17        27.2109  -43.2893  -56.1569 C.3       11 UNK        -0.0850 
     18 CA         25.6876  -43.3818  -56.4270 C.3       10 UNK         0.0855 
     19 C          25.3424  -42.7350  -57.7961 C.2       10 UNK         0.5543 
     20 N          24.8745  -41.4947  -57.7978 N.am      10 UNK        -0.7343 
     21 O          25.5449  -43.3298  -58.8525 O.2       10 UNK        -0.5027 
     22 N          25.2274  -44.7724  -56.3168 N.am      10 UNK        -0.4495 
     23 C          23.9646  -45.2045  -56.4049 C.2       10 UNK         0.4903 
     24 O          22.9902  -44.4730  -56.5888 O.2       10 UNK        -0.4860 
     25 CA         23.7800  -46.7201  -56.2194 C.3       9 UNK         0.0227 
     26 CB         22.3389  -47.2088  -56.4833 C.3       9 UNK        -0.1964 
     27 N          24.7743  -47.4876  -56.9792 N.am      9 UNK        -0.4231 
     28 C          24.8564  -47.6447  -58.3115 C.2       9 UNK         0.5014 
     29 O          24.0464  -47.1694  -59.1083 O.2       9 UNK        -0.5270 
     30 CA         26.0419  -48.4647  -58.8717 C.3       8 UNK         0.0284 
     31 CB         26.9531  -47.5697  -59.7288 C.3       8 UNK        -0.1977 
     32 N          26.8578  -49.1233  -57.8460 N.am      8 UNK        -0.4342 
     33 C          26.4520  -50.1398  -57.0690 C.2       8 UNK         0.5039 
     34 O          25.3909  -50.7401  -57.2431 O.2       8 UNK        -0.5547 
     35 CA         27.3373  -50.5287  -55.8656 C.3       7 UNK         0.0281 
     36 CB         28.0304  -51.8761  -56.1261 C.3       7 UNK        -0.1963 
     37 N          28.3475  -49.5313  -55.4880 N.am      7 UNK        -0.4444 
     38 C          28.1163  -48.2516  -55.1566 C.2       7 UNK         0.5104 
     39 O          26.9862  -47.7718  -55.0515 O.2       7 UNK        -0.5100 
     40 CA         29.3398  -47.3264  -55.0084 C.3       6 UNK         0.0396 
     41 CB         29.6926  -47.0984  -53.5346 C.3       6 UNK        -0.1801 
     42 N          30.5358  -47.7598  -55.7400 N.am      6 UNK        -0.4747 
     43 C          30.6021  -47.9118  -57.0735 C.2       6 UNK         0.5012 
     44 O          29.6433  -47.7106  -57.8206 O.2       6 UNK        -0.5003 
     45 CA         31.9270  -48.4096  -57.6821 C.3       5 UNK         0.0782 
     46 C46        32.7557  -47.2770  -58.3415 C.3       11 UNK        -0.0868 
     47 S47        33.3407  -45.9891  -57.1923 S.3       11 UNK        -0.2515 
     48 C48        32.1640  -44.6352  -57.5090 C.3       11 UNK         0.0199 
     49 N          32.6880  -49.2086  -56.7110 N.am      5 UNK        -0.4607 
     50 C          32.9710  -50.5056  -56.8876 C.2       4 UNK         0.5031 
     51 O          32.8050  -51.1008  -57.9534 O.2       4 UNK        -0.5119 
     52 CA         33.4882  -51.3091  -55.6787 C.3       4 UNK         0.0263 
     53 CB         35.0215  -51.4077  -55.6931 C.3       4 UNK        -0.1967 
     54 N          33.0203  -50.8756  -54.3533 N.am      4 UNK        -0.4237 
     55 C          31.7312  -50.7757  -53.9907 C.2       3 UNK         0.4908 
     56 O          30.7886  -50.8286  -54.7783 O.2       3 UNK        -0.5102 
     57 CA         31.4301  -50.6474  -52.4944 C.3       3 UNK         0.0241 
     58 CB         31.6272  -52.0250  -51.8214 C.3       3 UNK        -0.1971 
     59 N          32.2321  -49.6021  -51.8486 N.am      3 UNK        -0.4139 
     60 C          32.0803  -49.2146  -50.5714 C.2       2 UNK         0.5016 
     61 O          31.2113  -49.6572  -49.8189 O.2       2 UNK        -0.5319 
     62 CA         33.0630  -48.1724  -50.0112 C.3       2 UNK         0.0286 
     63 CB         34.2563  -48.8723  -49.3405 C.3       2 UNK        -0.1963 
     64 N          33.5614  -47.2413  -51.0205 N.am      2 UNK        -0.4790 
     65 C          32.8646  -46.2074  -51.5129 C.2       1 UNK         0.5024 
     66 O          31.7361  -45.9030  -51.1270 O.2       1 UNK        -0.4888 
     67 H67        36.3620  -46.9557  -54.9649 H         1 UNK         0.0892 
     68 H68        36.0474  -48.5601  -54.3001 H         1 UNK         0.0892 
     69 H69        35.3136  -48.0662  -55.8364 H         1 UNK         0.0892 
     70 H70        35.4864  -45.6593  -53.3574 H         1 UNK         0.3107 
     71 H71        32.7733  -45.0917  -53.3252 H         1 UNK         0.0773 
     72 H72        34.7637  -44.2943  -51.1331 H         1 UNK         0.0680 
     73 H73        33.3031  -43.4504  -51.5704 H         1 UNK         0.0680 
     74 H74        34.3778  -41.0933  -54.3584 H         1 UNK         0.0650 
     75 H75        33.5347  -41.2242  -52.8324 H         1 UNK         0.0650 
     76 H76        33.9515  -43.2274  -56.0076 H         1 UNK         0.1397 
     77 H77        29.8149  -44.2672  -56.2191 H         1 UNK         0.1363 
     78 H78        31.2446  -41.8058  -53.0059 H         1 UNK         0.1355 
     79 H79        29.0363  -42.9795  -52.8637 H         1 UNK         0.0707 
     80 H80        28.6179  -41.8166  -54.0941 H         1 UNK         0.0707 
     81 H81        27.5390  -42.2491  -56.2011 H         1 UNK         0.1034 
     82 H82        27.7583  -43.8141  -56.9414 H         1 UNK         0.1034 
     83 H83        25.1716  -42.8200  -55.6457 H         1 UNK         0.0482 
     84 H84        24.6619  -41.0524  -58.6784 H         1 UNK         0.3460 
     85 H85        24.7142  -40.9963  -56.9363 H         1 UNK         0.3460 
     86 H86        25.9510  -45.4537  -56.1393 H         1 UNK         0.2989 
     87 H87        23.9969  -46.9205  -55.1690 H         1 UNK         0.0559 
     88 H88        22.0022  -46.9683  -57.4919 H         1 UNK         0.0848 
     89 H89        21.6385  -46.7392  -55.7917 H         1 UNK         0.0848 
     90 H90        22.2539  -48.2870  -56.3480 H         1 UNK         0.0848 
     91 H91        25.5277  -47.8715  -56.4160 H         1 UNK         0.3144 
     92 H92        25.6212  -49.2404  -59.5148 H         1 UNK         0.0727 
     93 H93        27.7746  -48.1381  -60.1652 H         1 UNK         0.0790 
     94 H94        27.3824  -46.7557  -59.1430 H         1 UNK         0.0790 
     95 H95        26.3983  -47.1191  -60.5529 H         1 UNK         0.0790 
     96 H96        27.7613  -48.7014  -57.6568 H         1 UNK         0.3215 
     97 H97        26.6688  -50.6483  -55.0108 H         1 UNK         0.0863 
     98 H98        28.5277  -52.2452  -55.2291 H         1 UNK         0.0808 
     99 H99        28.7783  -51.7978  -56.9162 H         1 UNK         0.0808 
    100 H100       27.3114  -52.6386  -56.4290 H         1 UNK         0.0808 
    101 H101       29.3115  -49.8580  -55.4735 H         1 UNK         0.3118 
    102 H102       29.0483  -46.3668  -55.4340 H         1 UNK         0.0546 
    103 H103       28.8190  -46.7754  -52.9667 H         1 UNK         0.0828 
    104 H104       30.4433  -46.3150  -53.4373 H         1 UNK         0.0828 
    105 H105       30.0788  -48.0004  -53.0620 H         1 UNK         0.0828 
    106 H106       31.3726  -47.9041  -55.1888 H         1 UNK         0.3005 
    107 H107       31.6071  -49.0571  -58.5019 H         1 UNK         0.1257 
    108 H108       32.1880  -46.8141  -59.1508 H         1 UNK         0.0775 
    109 H109       33.6342  -47.7116  -58.8207 H         1 UNK         0.0775 
    110 H110       32.5650  -43.9836  -58.2864 H         1 UNK         0.0840 
    111 H111       31.2283  -45.0400  -57.8974 H         1 UNK         0.0840 
    112 H112       32.8874  -48.7779  -55.8134 H         1 UNK         0.2987 
    113 H113       33.1025  -52.3225  -55.8100 H         1 UNK         0.0785 
    114 H114       35.3768  -51.7945  -56.6494 H         1 UNK         0.0798 
    115 H115       35.3852  -52.0842  -54.9196 H         1 UNK         0.0798 
    116 H116       35.4937  -50.4401  -55.5436 H         1 UNK         0.0798 
    117 H117       33.7235  -50.8220  -53.6320 H         1 UNK         0.3079 
    118 H118       30.3788  -50.3673  -52.4005 H         1 UNK         0.0794 
    119 H119       32.6811  -52.2969  -51.7567 H         1 UNK         0.0786 
    120 H120       31.1210  -52.8122  -52.3825 H         1 UNK         0.0786 
    121 H121       31.2148  -52.0499  -50.8133 H         1 UNK         0.0786 
    122 H122       32.8798  -49.0953  -52.4416 H         1 UNK         0.3032 
    123 H123       32.5306  -47.6016  -49.2463 H         1 UNK         0.1094 
    124 H124       34.8394  -49.4547  -50.0551 H         1 UNK         0.0794 
    125 H125       34.9245  -48.1523  -48.8677 H         1 UNK         0.0794 
    126 H126       33.9185  -49.5574  -48.5614 H         1 UNK         0.0794 
    127 H127       34.4895  -47.4059  -51.3826 H         1 UNK         0.3016 
@<TRIPOS>BOND
     1    1    2 1    
     2    1   67 1    
     3    1   68 1    
     4    1   69 1    
     5    2    3 2    
     6    2    4 am   BACKBONE|DICT|INTERRES
     7    4    5 1    
     8    4   70 1    
     9    5    6 1    
    10    5   65 1    
    11    5   71 1    
    12    6    7 1    
    13    6   72 1    
    14    6   73 1    
    15    7    8 1    
    16    8    9 1    
    17    8   74 1    
    18    8   75 1    
    19    9   10 ar   
    20    9   14 ar   
    21   10   11 ar   
    22   10   76 1    
    23   11   12 ar   
    24   11   48 1    
    25   12   13 ar   
    26   12   77 1    
    27   13   14 ar   
    28   13   15 1    
    29   14   78 1    
    30   15   16 1    
    31   15   79 1    
    32   15   80 1    
    33   16   17 1    
    34   17   18 1    
    35   17   81 1    
    36   17   82 1    
    37   18   19 1    
    38   18   22 1    
    39   18   83 1    
    40   19   20 am   BACKBONE|DICT|INTERRES
    41   19   21 2    
    42   20   84 1    
    43   20   85 1    
    44   22   23 am   BACKBONE|DICT|INTERRES
    45   22   86 1    
    46   23   24 2    
    47   23   25 1    
    48   25   26 1    
    49   25   27 1    
    50   25   87 1    
    51   26   88 1    
    52   26   89 1    
    53   26   90 1    
    54   27   28 am   BACKBONE|DICT|INTERRES
    55   27   91 1    
    56   28   29 2    
    57   28   30 1    
    58   30   31 1    
    59   30   32 1    
    60   30   92 1    
    61   31   93 1    
    62   31   94 1    
    63   31   95 1    
    64   32   33 am   BACKBONE|DICT|INTERRES
    65   32   96 1    
    66   33   34 2    
    67   33   35 1    
    68   35   36 1    
    69   35   37 1    
    70   35   97 1    
    71   36   98 1    
    72   36   99 1    
    73   36  100 1    
    74   37   38 am   BACKBONE|DICT|INTERRES
    75   37  101 1    
    76   38   39 2    
    77   38   40 1    
    78   40   41 1    
    79   40   42 1    
    80   40  102 1    
    81   41  103 1    
    82   41  104 1    
    83   41  105 1    
    84   42   43 am   BACKBONE|DICT|INTERRES
    85   42  106 1    
    86   43   44 2    
    87   43   45 1    
    88   45   46 1    
    89   45   49 1    
    90   45  107 1    
    91   46   47 1    
    92   46  108 1    
    93   46  109 1    
    94   47   48 1    
    95   48  110 1    
    96   48  111 1    
    97   49   50 am   BACKBONE|DICT|INTERRES
    98   49  112 1    
    99   50   51 2    
   100   50   52 1    
   101   52   53 1    
   102   52   54 1    
   103   52  113 1    
   104   53  114 1    
   105   53  115 1    
   106   53  116 1    
   107   54   55 am   BACKBONE|DICT|INTERRES
   108   54  117 1    
   109   55   56 2    
   110   55   57 1    
   111   57   58 1    
   112   57   59 1    
   113   57  118 1    
   114   58  119 1    
   115   58  120 1    
   116   58  121 1    
   117   59   60 am   BACKBONE|DICT|INTERRES
   118   59  122 1    
   119   60   61 2    
   120   60   62 1    
   121   62   63 1    
   122   62   64 1    
   123   62  123 1    
   124   63  124 1    
   125   63  125 1    
   126   63  126 1    
   127   64   65 am   BACKBONE|DICT|INTERRES
   128   64  127 1    
   129   65   66 2    
@<TRIPOS>SUBSTRUCTURE
     1 UNK         1 GROUP             0       ****    0 ROOT    
