@<TRIPOS>MOLECULE
3R134
127   129    1
SMALL
USER_CHARGES


@<TRIPOS>ATOM
      1 CA         36.4905  -44.4907  -48.2972 C.3       0 UNK        -0.1968 
      2 C          35.6890  -44.9291  -49.5144 C.2       0 UNK         0.4852 
      3 O          34.8896  -45.8608  -49.4100 O.2       0 UNK        -0.5359 
      4 N          35.9017  -44.2614  -50.6578 N.am      1 UNK        -0.4300 
      5 CA         35.2633  -44.5175  -51.9567 C.3       1 UNK         0.0863 
      6 C6         33.7351  -44.2231  -51.9747 C.3       11 UNK        -0.0953 
      7 S7         33.3412  -42.5146  -51.4655 S.3       11 UNK        -0.2369 
      8 C8         33.0213  -41.6965  -53.0672 C.3       11 UNK         0.0226 
      9 C9         31.8564  -42.3007  -53.8480 C.ar      11 UNK        -0.0699 
     10 C10        30.6587  -42.6396  -53.2074 C.ar      11 UNK        -0.0804 
     11 C11        29.6124  -43.2288  -53.9217 C.ar      11 UNK        -0.0871 
     12 C12        29.7437  -43.4220  -55.2974 C.ar      11 UNK        -0.1008 
     13 C13        30.9303  -43.0854  -55.9533 C.ar      11 UNK        -0.0735 
     14 C14        31.9844  -42.5268  -55.2236 C.ar      11 UNK        -0.0945 
     15 C15        31.0599  -43.3341  -57.4484 C.3       11 UNK         0.0169 
     16 S16        30.7912  -45.0922  -57.8422 S.3       11 UNK        -0.2669 
     17 C17        29.9613  -44.9855  -59.4628 C.3       11 UNK        -0.0850 
     18 CA         28.4679  -44.5598  -59.3817 C.3       10 UNK         0.0855 
     19 C          27.8368  -44.4989  -60.8058 C.2       10 UNK         0.5543 
     20 N          26.7912  -45.2570  -61.1171 N.am      10 UNK        -0.7343 
     21 O          28.3087  -43.7397  -61.6483 O.2       10 UNK        -0.5027 
     22 N          27.7080  -45.3568  -58.4050 N.am      10 UNK        -0.4495 
     23 C          26.5290  -44.9984  -57.8771 C.2       10 UNK         0.4903 
     24 O          26.0032  -43.8997  -58.0608 O.2       10 UNK        -0.4860 
     25 CA         25.8160  -46.0588  -57.0134 C.3       9 UNK         0.0227 
     26 CB         24.3007  -45.8051  -56.8709 C.3       9 UNK        -0.1964 
     27 N          26.0807  -47.4302  -57.4698 N.am      9 UNK        -0.4231 
     28 C          25.8138  -47.9455  -58.6800 C.2       9 UNK         0.5014 
     29 O          25.2004  -47.3390  -59.5594 O.2       9 UNK        -0.5270 
     30 CA         26.3752  -49.3383  -59.0052 C.3       8 UNK         0.0284 
     31 CB         27.5802  -49.2071  -59.9549 C.3       8 UNK        -0.1977 
     32 N          26.7970  -50.0915  -57.8176 N.am      8 UNK        -0.4342 
     33 C          26.3475  -51.3126  -57.4997 C.2       8 UNK         0.5039 
     34 O          25.4607  -51.9007  -58.1210 O.2       8 UNK        -0.5547 
     35 CA         27.0116  -52.0281  -56.3117 C.3       7 UNK         0.0281 
     36 CB         28.2853  -52.7607  -56.7640 C.3       7 UNK        -0.1963 
     37 N          27.3256  -51.1578  -55.1769 N.am      7 UNK        -0.4444 
     38 C          26.4086  -50.6798  -54.3238 C.2       7 UNK         0.5104 
     39 O          25.1939  -50.8119  -54.4744 O.2       7 UNK        -0.5100 
     40 CA         26.9373  -49.9598  -53.0743 C.3       6 UNK         0.0396 
     41 CB         27.4546  -50.9742  -52.0410 C.3       6 UNK        -0.1801 
     42 N          28.0042  -49.0196  -53.4107 N.am      6 UNK        -0.4747 
     43 C          27.7950  -47.7435  -53.7624 C.2       6 UNK         0.5012 
     44 O          26.6810  -47.2207  -53.7906 O.2       6 UNK        -0.5003 
     45 CA         29.0303  -46.9221  -54.1953 C.3       5 UNK         0.0782 
     46 C46        29.7243  -46.2299  -52.9939 C.3       11 UNK        -0.0868 
     47 S47        28.6941  -45.0593  -52.0322 S.3       11 UNK        -0.2515 
     48 C48        28.3570  -43.7015  -53.2055 C.3       11 UNK         0.0199 
     49 N          29.9929  -47.7323  -54.9523 N.am      5 UNK        -0.4607 
     50 C          29.7333  -48.3399  -56.1205 C.2       4 UNK         0.5031 
     51 O          28.6694  -48.2184  -56.7247 O.2       4 UNK        -0.5119 
     52 CA         30.7913  -49.3017  -56.6927 C.3       4 UNK         0.0263 
     53 CB         31.6555  -48.5926  -57.7448 C.3       4 UNK        -0.1967 
     54 N          31.6588  -49.9045  -55.6798 N.am      4 UNK        -0.4237 
     55 C          31.2505  -50.6223  -54.6231 C.2       3 UNK         0.4908 
     56 O          30.0795  -50.9567  -54.4381 O.2       3 UNK        -0.5102 
     57 CA         32.3096  -50.9697  -53.5600 C.3       3 UNK         0.0241 
     58 CB         32.7569  -52.4319  -53.7136 C.3       3 UNK        -0.1971 
     59 N          33.4917  -50.0936  -53.5631 N.am      3 UNK        -0.4139 
     60 C          33.4757  -48.7627  -53.3958 C.2       2 UNK         0.5016 
     61 O          32.4455  -48.0997  -53.2364 O.2       2 UNK        -0.5319 
     62 CA         34.8277  -48.0475  -53.4925 C.3       2 UNK         0.0286 
     63 CB         35.3113  -47.9826  -54.9546 C.3       2 UNK        -0.1963 
     64 N          34.6702  -46.6965  -52.9650 N.am      2 UNK        -0.4790 
     65 C          35.6482  -45.9184  -52.4892 C.2       1 UNK         0.5024 
     66 O          36.8336  -46.2595  -52.4749 O.2       1 UNK        -0.4888 
     67 H67        37.1519  -43.6543  -48.5224 H         1 UNK         0.0892 
     68 H68        37.1006  -45.3165  -47.9325 H         1 UNK         0.0892 
     69 H69        35.8180  -44.1838  -47.4966 H         1 UNK         0.0892 
     70 H70        36.5930  -43.5249  -50.6669 H         1 UNK         0.3107 
     71 H71        35.7280  -43.8183  -52.6536 H         1 UNK         0.0773 
     72 H72        33.3230  -44.3933  -52.9702 H         1 UNK         0.0680 
     73 H73        33.2008  -44.9005  -51.3065 H         1 UNK         0.0680 
     74 H74        32.8078  -40.6429  -52.8842 H         1 UNK         0.0650 
     75 H75        33.9385  -41.7291  -53.6572 H         1 UNK         0.0650 
     76 H76        30.5526  -42.4841  -52.1426 H         1 UNK         0.1397 
     77 H77        28.9348  -43.8656  -55.8619 H         1 UNK         0.1363 
     78 H78        32.9059  -42.2687  -55.7273 H         1 UNK         0.1355 
     79 H79        32.0429  -43.0360  -57.8159 H         1 UNK         0.0707 
     80 H80        30.3326  -42.7085  -57.9657 H         1 UNK         0.0707 
     81 H81        30.0457  -45.9633  -59.9407 H         1 UNK         0.1034 
     82 H82        30.5247  -44.2949  -60.0937 H         1 UNK         0.1034 
     83 H83        28.4468  -43.5304  -59.0212 H         1 UNK         0.0482 
     84 H84        26.4024  -45.1941  -62.0443 H         1 UNK         0.3460 
     85 H85        26.3644  -45.8757  -60.4378 H         1 UNK         0.3460 
     86 H86        28.0860  -46.2663  -58.1787 H         1 UNK         0.2989 
     87 H87        26.2579  -45.9732  -56.0218 H         1 UNK         0.0559 
     88 H88        23.7955  -45.8089  -57.8371 H         1 UNK         0.0848 
     89 H89        24.1080  -44.8368  -56.4076 H         1 UNK         0.0848 
     90 H90        23.8310  -46.5618  -56.2425 H         1 UNK         0.0848 
     91 H91        26.6895  -47.9675  -56.8643 H         1 UNK         0.3144 
     92 H92        25.5830  -49.8697  -59.5364 H         1 UNK         0.0727 
     93 H93        27.9474  -50.1859  -60.2639 H         1 UNK         0.0790 
     94 H94        28.4079  -48.6717  -59.4879 H         1 UNK         0.0790 
     95 H95        27.3100  -48.6633  -60.8613 H         1 UNK         0.0790 
     96 H96        27.5327  -49.6707  -57.2580 H         1 UNK         0.3215 
     97 H97        26.3072  -52.7856  -55.9599 H         1 UNK         0.0863 
     98 H98        28.7228  -53.3364  -55.9481 H         1 UNK         0.0808 
     99 H99        29.0445  -52.0703  -57.1290 H         1 UNK         0.0808 
    100 H100       28.0663  -53.4597  -57.5724 H         1 UNK         0.0808 
    101 H101       28.3105  -51.0363  -54.9480 H         1 UNK         0.3118 
    102 H102       26.1044  -49.4205  -52.6177 H         1 UNK         0.0546 
    103 H103       26.6717  -51.6819  -51.7651 H         1 UNK         0.0828 
    104 H104       27.7771  -50.4767  -51.1264 H         1 UNK         0.0828 
    105 H105       28.2972  -51.5533  -52.4210 H         1 UNK         0.0828 
    106 H106       28.9402  -49.4001  -53.4809 H         1 UNK         0.3005 
    107 H107       28.6717  -46.1484  -54.8758 H         1 UNK         0.1257 
    108 H108       30.6148  -45.7002  -53.3361 H         1 UNK         0.0775 
    109 H109       30.0934  -46.9842  -52.2966 H         1 UNK         0.0775 
    110 H110       27.6013  -44.0336  -53.9193 H         1 UNK         0.0840 
    111 H111       27.9151  -42.8649  -52.6625 H         1 UNK         0.0840 
    112 H112       30.8896  -47.8902  -54.5023 H         1 UNK         0.2987 
    113 H113       30.2552  -50.1110  -57.1890 H         1 UNK         0.0785 
    114 H114       31.0347  -48.1529  -58.5268 H         1 UNK         0.0798 
    115 H115       32.3406  -49.2869  -58.2315 H         1 UNK         0.0798 
    116 H116       32.2464  -47.7877  -57.3056 H         1 UNK         0.0798 
    117 H117       32.6415  -49.6857  -55.7439 H         1 UNK         0.3079 
    118 H118       31.8270  -50.8596  -52.5867 H         1 UNK         0.0794 
    119 H119       33.2759  -52.5989  -54.6583 H         1 UNK         0.0786 
    120 H120       31.9001  -53.1072  -53.6889 H         1 UNK         0.0786 
    121 H121       33.4240  -52.7309  -52.9048 H         1 UNK         0.0786 
    122 H122       34.3824  -50.5506  -53.7003 H         1 UNK         0.3032 
    123 H123       35.5513  -48.5921  -52.8813 H         1 UNK         0.1094 
    124 H124       36.2736  -47.4764  -55.0332 H         1 UNK         0.0794 
    125 H125       35.4421  -48.9801  -55.3755 H         1 UNK         0.0794 
    126 H126       34.6024  -47.4486  -55.5891 H         1 UNK         0.0794 
    127 H127       33.7040  -46.3990  -52.8960 H         1 UNK         0.3016 
@<TRIPOS>BOND
     1    1    2 1    
     2    1   67 1    
     3    1   68 1    
     4    1   69 1    
     5    2    3 2    
     6    2    4 am   BACKBONE|DICT|INTERRES
     7    4    5 1    
     8    4   70 1    
     9    5    6 1    
    10    5   65 1    
    11    5   71 1    
    12    6    7 1    
    13    6   72 1    
    14    6   73 1    
    15    7    8 1    
    16    8    9 1    
    17    8   74 1    
    18    8   75 1    
    19    9   10 ar   
    20    9   14 ar   
    21   10   11 ar   
    22   10   76 1    
    23   11   12 ar   
    24   11   48 1    
    25   12   13 ar   
    26   12   77 1    
    27   13   14 ar   
    28   13   15 1    
    29   14   78 1    
    30   15   16 1    
    31   15   79 1    
    32   15   80 1    
    33   16   17 1    
    34   17   18 1    
    35   17   81 1    
    36   17   82 1    
    37   18   19 1    
    38   18   22 1    
    39   18   83 1    
    40   19   20 am   BACKBONE|DICT|INTERRES
    41   19   21 2    
    42   20   84 1    
    43   20   85 1    
    44   22   23 am   BACKBONE|DICT|INTERRES
    45   22   86 1    
    46   23   24 2    
    47   23   25 1    
    48   25   26 1    
    49   25   27 1    
    50   25   87 1    
    51   26   88 1    
    52   26   89 1    
    53   26   90 1    
    54   27   28 am   BACKBONE|DICT|INTERRES
    55   27   91 1    
    56   28   29 2    
    57   28   30 1    
    58   30   31 1    
    59   30   32 1    
    60   30   92 1    
    61   31   93 1    
    62   31   94 1    
    63   31   95 1    
    64   32   33 am   BACKBONE|DICT|INTERRES
    65   32   96 1    
    66   33   34 2    
    67   33   35 1    
    68   35   36 1    
    69   35   37 1    
    70   35   97 1    
    71   36   98 1    
    72   36   99 1    
    73   36  100 1    
    74   37   38 am   BACKBONE|DICT|INTERRES
    75   37  101 1    
    76   38   39 2    
    77   38   40 1    
    78   40   41 1    
    79   40   42 1    
    80   40  102 1    
    81   41  103 1    
    82   41  104 1    
    83   41  105 1    
    84   42   43 am   BACKBONE|DICT|INTERRES
    85   42  106 1    
    86   43   44 2    
    87   43   45 1    
    88   45   46 1    
    89   45   49 1    
    90   45  107 1    
    91   46   47 1    
    92   46  108 1    
    93   46  109 1    
    94   47   48 1    
    95   48  110 1    
    96   48  111 1    
    97   49   50 am   BACKBONE|DICT|INTERRES
    98   49  112 1    
    99   50   51 2    
   100   50   52 1    
   101   52   53 1    
   102   52   54 1    
   103   52  113 1    
   104   53  114 1    
   105   53  115 1    
   106   53  116 1    
   107   54   55 am   BACKBONE|DICT|INTERRES
   108   54  117 1    
   109   55   56 2    
   110   55   57 1    
   111   57   58 1    
   112   57   59 1    
   113   57  118 1    
   114   58  119 1    
   115   58  120 1    
   116   58  121 1    
   117   59   60 am   BACKBONE|DICT|INTERRES
   118   59  122 1    
   119   60   61 2    
   120   60   62 1    
   121   62   63 1    
   122   62   64 1    
   123   62  123 1    
   124   63  124 1    
   125   63  125 1    
   126   63  126 1    
   127   64   65 am   BACKBONE|DICT|INTERRES
   128   64  127 1    
   129   65   66 2    
@<TRIPOS>SUBSTRUCTURE
     1 UNK         1 GROUP             0       ****    0 ROOT    
