@<TRIPOS>MOLECULE
3R134
127   129    1
SMALL
USER_CHARGES


@<TRIPOS>ATOM
      1 CA         30.2363  -47.3548  -49.3913 C.3       0 UNK        -0.1968 
      2 C          31.6178  -46.7236  -49.4810 C.2       0 UNK         0.4852 
      3 O          32.5671  -47.2496  -48.8988 O.2       0 UNK        -0.5359 
      4 N          31.7348  -45.5991  -50.2009 N.am      1 UNK        -0.4300 
      5 CA         32.9855  -44.8615  -50.4270 C.3       1 UNK         0.0863 
      6 C6         32.7152  -43.4414  -50.9853 C.3       11 UNK        -0.0953 
      7 S7         31.7523  -43.4332  -52.5397 S.3       11 UNK        -0.2369 
      8 C8         32.8118  -42.4123  -53.6055 C.3       11 UNK         0.0226 
      9 C9         32.5192  -42.6788  -55.0714 C.ar      11 UNK        -0.0699 
     10 C10        33.3122  -43.5834  -55.7807 C.ar      11 UNK        -0.0804 
     11 C11        33.0555  -43.8493  -57.1278 C.ar      11 UNK        -0.0871 
     12 C12        32.0070  -43.1839  -57.7711 C.ar      11 UNK        -0.1008 
     13 C13        31.1869  -42.2996  -57.0631 C.ar      11 UNK        -0.0735 
     14 C14        31.4545  -42.0406  -55.7149 C.ar      11 UNK        -0.0945 
     15 C15        30.0078  -41.6385  -57.7605 C.3       11 UNK         0.0169 
     16 S16        28.5946  -42.7786  -57.9301 S.3       11 UNK        -0.2669 
     17 C17        27.8536  -42.7468  -56.2574 C.3       11 UNK        -0.0850 
     18 CA         27.6727  -44.1596  -55.6226 C.3       10 UNK         0.0855 
     19 C          27.1556  -44.0760  -54.1522 C.2       10 UNK         0.5543 
     20 N          26.2916  -44.9751  -53.6966 N.am      10 UNK        -0.7343 
     21 O          27.5641  -43.1957  -53.3993 O.2       10 UNK        -0.5027 
     22 N          26.9370  -45.0957  -56.4981 N.am      10 UNK        -0.4495 
     23 C          25.6694  -44.9606  -56.9123 C.2       10 UNK         0.4903 
     24 O          24.9171  -44.0710  -56.5132 O.2       10 UNK        -0.4860 
     25 CA         25.1337  -45.9377  -57.9736 C.3       9 UNK         0.0227 
     26 CB         25.1012  -45.2265  -59.3440 C.3       9 UNK        -0.1964 
     27 N          25.8697  -47.2066  -58.0770 N.am      9 UNK        -0.4231 
     28 C          25.4123  -48.2864  -58.7289 C.2       9 UNK         0.5014 
     29 O          24.2900  -48.3598  -59.2327 O.2       9 UNK        -0.5270 
     30 CA         26.3671  -49.4828  -58.8717 C.3       8 UNK         0.0284 
     31 CB         27.5431  -49.1501  -59.8065 C.3       8 UNK        -0.1977 
     32 N          26.8685  -49.9595  -57.5840 N.am      8 UNK        -0.4342 
     33 C          26.1609  -50.7062  -56.7248 C.2       8 UNK         0.5039 
     34 O          25.0096  -51.0900  -56.9362 O.2       8 UNK        -0.5547 
     35 CA         26.8518  -51.1087  -55.4092 C.3       7 UNK         0.0281 
     36 CB         27.6099  -52.4342  -55.5859 C.3       7 UNK        -0.1963 
     37 N          27.7719  -50.0881  -54.9054 N.am      7 UNK        -0.4444 
     38 C          27.3952  -48.8799  -54.4640 C.2       7 UNK         0.5104 
     39 O          26.2242  -48.5142  -54.3591 O.2       7 UNK        -0.5100 
     40 CA         28.5219  -47.8907  -54.1332 C.3       6 UNK         0.0396 
     41 CB         29.0590  -48.1220  -52.7139 C.3       6 UNK        -0.1801 
     42 N          29.6238  -47.9295  -55.0953 N.am      6 UNK        -0.4747 
     43 C          29.5137  -47.6700  -56.4056 C.2       6 UNK         0.5012 
     44 O          28.4551  -47.3718  -56.9591 O.2       6 UNK        -0.5003 
     45 CA         30.7904  -47.7765  -57.2508 C.3       5 UNK         0.0782 
     46 C46        31.6328  -46.4951  -57.0999 C.3       11 UNK        -0.0868 
     47 S47        32.8974  -46.3426  -58.4059 S.3       11 UNK        -0.2515 
     48 C48        33.8802  -44.8978  -57.8653 C.3       11 UNK         0.0199 
     49 N          31.5392  -48.9886  -56.9210 N.am      5 UNK        -0.4607 
     50 C          31.1369  -50.2255  -57.2382 C.2       4 UNK         0.5031 
     51 O          30.1161  -50.4711  -57.8810 O.2       4 UNK        -0.5119 
     52 CA         32.0040  -51.3835  -56.7199 C.3       4 UNK         0.0263 
     53 CB         33.2058  -51.6190  -57.6487 C.3       4 UNK        -0.1967 
     54 N          32.4740  -51.1717  -55.3476 N.am      4 UNK        -0.4237 
     55 C          31.6692  -51.1095  -54.2775 C.2       3 UNK         0.4908 
     56 O          30.4435  -51.2189  -54.3299 O.2       3 UNK        -0.5102 
     57 CA         32.3438  -50.8527  -52.9198 C.3       3 UNK         0.0241 
     58 CB         32.9568  -52.1495  -52.3663 C.3       3 UNK        -0.1971 
     59 N          33.3559  -49.7871  -52.9199 N.am      3 UNK        -0.4139 
     60 C          33.1348  -48.5232  -53.3054 C.2       2 UNK         0.5016 
     61 O          32.1053  -48.1418  -53.8642 O.2       2 UNK        -0.5319 
     62 CA         34.2034  -47.4816  -52.9713 C.3       2 UNK         0.0286 
     63 CB         34.8521  -46.9037  -54.2404 C.3       2 UNK        -0.1963 
     64 N          33.4975  -46.4404  -52.2355 N.am      2 UNK        -0.4790 
     65 C          34.0040  -45.6578  -51.2769 C.2       1 UNK         0.5024 
     66 O          35.2060  -45.5861  -51.0172 O.2       1 UNK        -0.4888 
     67 H67        29.9448  -47.4719  -48.3479 H         1 UNK         0.0892 
     68 H68        30.2442  -48.3407  -49.8552 H         1 UNK         0.0892 
     69 H69        29.4775  -46.7494  -49.8867 H         1 UNK         0.0892 
     70 H70        30.9210  -45.2068  -50.6533 H         1 UNK         0.3107 
     71 H71        33.4509  -44.7314  -49.4473 H         1 UNK         0.0773 
     72 H72        33.6550  -42.9019  -51.1139 H         1 UNK         0.0680 
     73 H73        32.1520  -42.8654  -50.2495 H         1 UNK         0.0680 
     74 H74        32.6538  -41.3584  -53.3719 H         1 UNK         0.0650 
     75 H75        33.8620  -42.6232  -53.3975 H         1 UNK         0.0650 
     76 H76        34.1203  -44.0927  -55.2742 H         1 UNK         0.1397 
     77 H77        31.7957  -43.3965  -58.8104 H         1 UNK         0.1363 
     78 H78        30.8289  -41.3548  -55.1603 H         1 UNK         0.1355 
     79 H79        29.6954  -40.7357  -57.2333 H         1 UNK         0.0707 
     80 H80        30.3161  -41.3153  -58.7559 H         1 UNK         0.0707 
     81 H81        26.8926  -42.2342  -56.3214 H         1 UNK         0.1034 
     82 H82        28.4744  -42.1247  -55.6113 H         1 UNK         0.1034 
     83 H83        28.6701  -44.5918  -55.5317 H         1 UNK         0.0482 
     84 H84        25.9475  -45.7055  -54.2997 H         1 UNK         0.3460 
     85 H85        25.9692  -44.9109  -52.7445 H         1 UNK         0.3460 
     86 H86        27.4946  -45.8755  -56.8318 H         1 UNK         0.2989 
     87 H87        24.1078  -46.1715  -57.6811 H         1 UNK         0.0559 
     88 H88        26.1081  -45.0271  -59.7129 H         1 UNK         0.0848 
     89 H89        24.5838  -44.2682  -59.2791 H         1 UNK         0.0848 
     90 H90        24.5785  -45.8155  -60.0972 H         1 UNK         0.0848 
     91 H91        26.7974  -47.2547  -57.6612 H         1 UNK         0.3144 
     92 H92        25.8060  -50.2965  -59.3369 H         1 UNK         0.0727 
     93 H93        27.1826  -48.8249  -60.7833 H         1 UNK         0.0790 
     94 H94        28.1762  -50.0226  -59.9696 H         1 UNK         0.0790 
     95 H95        28.1725  -48.3531  -59.4118 H         1 UNK         0.0790 
     96 H96        27.8124  -49.6955  -57.3339 H         1 UNK         0.3215 
     97 H97        26.0721  -51.2568  -54.6589 H         1 UNK         0.0863 
     98 H98        28.0329  -52.7775  -54.6416 H         1 UNK         0.0808 
     99 H99        28.4274  -52.3379  -56.3021 H         1 UNK         0.0808 
    100 H100       26.9461  -53.2199  -55.9491 H         1 UNK         0.0808 
    101 H101       28.7609  -50.3248  -54.8939 H         1 UNK         0.3118 
    102 H102       28.1030  -46.8871  -54.1727 H         1 UNK         0.0546 
    103 H103       28.2557  -48.0663  -51.9783 H         1 UNK         0.0828 
    104 H104       29.7986  -47.3675  -52.4472 H         1 UNK         0.0828 
    105 H105       29.5284  -49.1009  -52.6151 H         1 UNK         0.0828 
    106 H106       30.5491  -48.1288  -54.7129 H         1 UNK         0.3005 
    107 H107       30.4697  -47.8517  -58.2928 H         1 UNK         0.1257 
    108 H108       32.1058  -46.4506  -56.1178 H         1 UNK         0.0775 
    109 H109       30.9841  -45.6198  -57.1684 H         1 UNK         0.0775 
    110 H110       34.6967  -45.2554  -57.2360 H         1 UNK         0.0840 
    111 H111       34.3483  -44.4403  -58.7378 H         1 UNK         0.0840 
    112 H112       32.3630  -48.8697  -56.3504 H         1 UNK         0.2987 
    113 H113       31.3860  -52.2842  -56.7257 H         1 UNK         0.0785 
    114 H114       32.8762  -51.7966  -58.6735 H         1 UNK         0.0798 
    115 H115       33.7811  -52.4920  -57.3399 H         1 UNK         0.0798 
    116 H116       33.8792  -50.7612  -57.6675 H         1 UNK         0.0798 
    117 H117       33.4683  -51.0627  -55.2102 H         1 UNK         0.3079 
    118 H118       31.5568  -50.5381  -52.2313 H         1 UNK         0.0794 
    119 H119       33.7959  -52.4933  -52.9724 H         1 UNK         0.0786 
    120 H120       32.2187  -52.9528  -52.3455 H         1 UNK         0.0786 
    121 H121       33.3131  -52.0157  -51.3446 H         1 UNK         0.0786 
    122 H122       34.2356  -50.0097  -52.4763 H         1 UNK         0.3032 
    123 H123       34.9709  -47.9278  -52.3348 H         1 UNK         0.1094 
    124 H124       35.3810  -47.6789  -54.7958 H         1 UNK         0.0794 
    125 H125       34.1099  -46.4711  -54.9102 H         1 UNK         0.0794 
    126 H126       35.5759  -46.1260  -53.9965 H         1 UNK         0.0794 
    127 H127       32.4974  -46.4337  -52.3917 H         1 UNK         0.3016 
@<TRIPOS>BOND
     1    1    2 1    
     2    1   67 1    
     3    1   68 1    
     4    1   69 1    
     5    2    3 2    
     6    2    4 am   BACKBONE|DICT|INTERRES
     7    4    5 1    
     8    4   70 1    
     9    5    6 1    
    10    5   65 1    
    11    5   71 1    
    12    6    7 1    
    13    6   72 1    
    14    6   73 1    
    15    7    8 1    
    16    8    9 1    
    17    8   74 1    
    18    8   75 1    
    19    9   10 ar   
    20    9   14 ar   
    21   10   11 ar   
    22   10   76 1    
    23   11   12 ar   
    24   11   48 1    
    25   12   13 ar   
    26   12   77 1    
    27   13   14 ar   
    28   13   15 1    
    29   14   78 1    
    30   15   16 1    
    31   15   79 1    
    32   15   80 1    
    33   16   17 1    
    34   17   18 1    
    35   17   81 1    
    36   17   82 1    
    37   18   19 1    
    38   18   22 1    
    39   18   83 1    
    40   19   20 am   BACKBONE|DICT|INTERRES
    41   19   21 2    
    42   20   84 1    
    43   20   85 1    
    44   22   23 am   BACKBONE|DICT|INTERRES
    45   22   86 1    
    46   23   24 2    
    47   23   25 1    
    48   25   26 1    
    49   25   27 1    
    50   25   87 1    
    51   26   88 1    
    52   26   89 1    
    53   26   90 1    
    54   27   28 am   BACKBONE|DICT|INTERRES
    55   27   91 1    
    56   28   29 2    
    57   28   30 1    
    58   30   31 1    
    59   30   32 1    
    60   30   92 1    
    61   31   93 1    
    62   31   94 1    
    63   31   95 1    
    64   32   33 am   BACKBONE|DICT|INTERRES
    65   32   96 1    
    66   33   34 2    
    67   33   35 1    
    68   35   36 1    
    69   35   37 1    
    70   35   97 1    
    71   36   98 1    
    72   36   99 1    
    73   36  100 1    
    74   37   38 am   BACKBONE|DICT|INTERRES
    75   37  101 1    
    76   38   39 2    
    77   38   40 1    
    78   40   41 1    
    79   40   42 1    
    80   40  102 1    
    81   41  103 1    
    82   41  104 1    
    83   41  105 1    
    84   42   43 am   BACKBONE|DICT|INTERRES
    85   42  106 1    
    86   43   44 2    
    87   43   45 1    
    88   45   46 1    
    89   45   49 1    
    90   45  107 1    
    91   46   47 1    
    92   46  108 1    
    93   46  109 1    
    94   47   48 1    
    95   48  110 1    
    96   48  111 1    
    97   49   50 am   BACKBONE|DICT|INTERRES
    98   49  112 1    
    99   50   51 2    
   100   50   52 1    
   101   52   53 1    
   102   52   54 1    
   103   52  113 1    
   104   53  114 1    
   105   53  115 1    
   106   53  116 1    
   107   54   55 am   BACKBONE|DICT|INTERRES
   108   54  117 1    
   109   55   56 2    
   110   55   57 1    
   111   57   58 1    
   112   57   59 1    
   113   57  118 1    
   114   58  119 1    
   115   58  120 1    
   116   58  121 1    
   117   59   60 am   BACKBONE|DICT|INTERRES
   118   59  122 1    
   119   60   61 2    
   120   60   62 1    
   121   62   63 1    
   122   62   64 1    
   123   62  123 1    
   124   63  124 1    
   125   63  125 1    
   126   63  126 1    
   127   64   65 am   BACKBONE|DICT|INTERRES
   128   64  127 1    
   129   65   66 2    
@<TRIPOS>SUBSTRUCTURE
     1 UNK         1 GROUP             0       ****    0 ROOT    
