@<TRIPOS>MOLECULE
3R134
127   129    1
SMALL
USER_CHARGES


@<TRIPOS>ATOM
      1 CA         30.2844  -46.0556  -53.0742 C.3       0 UNK        -0.1968 
      2 C          31.7467  -46.0533  -52.6686 C.2       0 UNK         0.4852 
      3 O          32.5307  -46.8454  -53.1922 O.2       0 UNK        -0.5359 
      4 N          32.1016  -45.1748  -51.7194 N.am      1 UNK        -0.4300 
      5 CA         33.4646  -44.8990  -51.2394 C.3       1 UNK         0.0863 
      6 C6         34.3015  -44.0921  -52.2694 C.3       11 UNK        -0.0953 
      7 S7         33.5558  -42.4522  -52.5680 S.3       11 UNK        -0.2369 
      8 C8         33.7633  -42.2358  -54.3649 C.3       11 UNK         0.0226 
      9 C9         32.8220  -43.0917  -55.2073 C.ar      11 UNK        -0.0699 
     10 C10        33.3376  -43.8657  -56.2506 C.ar      11 UNK        -0.0804 
     11 C11        32.4910  -44.5975  -57.0890 C.ar      11 UNK        -0.0871 
     12 C12        31.1094  -44.5641  -56.8610 C.ar      11 UNK        -0.1008 
     13 C13        30.5781  -43.8007  -55.8179 C.ar      11 UNK        -0.0735 
     14 C14        31.4384  -43.0600  -54.9998 C.ar      11 UNK        -0.0945 
     15 C15        29.0752  -43.7721  -55.5798 C.3       11 UNK         0.0169 
     16 S16        28.2358  -42.7194  -56.8050 S.3       11 UNK        -0.2669 
     17 C17        26.7872  -42.1071  -55.8697 C.3       11 UNK        -0.0850 
     18 CA         25.4157  -42.6045  -56.3969 C.3       10 UNK         0.0855 
     19 C          25.0592  -42.0265  -57.8003 C.2       10 UNK         0.5543 
     20 N          24.7593  -42.8373  -58.8086 N.am      10 UNK        -0.7343 
     21 O          25.0354  -40.8099  -57.9712 O.2       10 UNK        -0.5027 
     22 N          25.2769  -44.0633  -56.2702 N.am      10 UNK        -0.4495 
     23 C          24.1079  -44.7029  -56.1326 C.2       10 UNK         0.4903 
     24 O          23.0284  -44.1244  -55.9953 O.2       10 UNK        -0.4860 
     25 CA         24.1520  -46.2455  -56.1528 C.3       9 UNK         0.0227 
     26 CB         22.7838  -46.8720  -56.4950 C.3       9 UNK        -0.1964 
     27 N          25.1942  -46.8105  -57.0207 N.am      9 UNK        -0.4231 
     28 C          25.3753  -46.5822  -58.3334 C.2       9 UNK         0.5014 
     29 O          24.7059  -45.7813  -58.9872 O.2       9 UNK        -0.5270 
     30 CA         26.5047  -47.3522  -59.0439 C.3       8 UNK         0.0284 
     31 CB         27.7059  -46.4209  -59.2824 C.3       8 UNK        -0.1977 
     32 N          26.9433  -48.5447  -58.3110 N.am      8 UNK        -0.4342 
     33 C          26.2226  -49.6736  -58.2012 C.2       8 UNK         0.5039 
     34 O          25.1630  -49.8584  -58.8013 O.2       8 UNK        -0.5547 
     35 CA         26.7355  -50.7790  -57.2527 C.3       7 UNK         0.0281 
     36 CB         27.3986  -51.9080  -58.0579 C.3       7 UNK        -0.1963 
     37 N          27.6705  -50.3157  -56.2230 N.am      7 UNK        -0.4444 
     38 C          27.4074  -49.3819  -55.2950 C.2       7 UNK         0.5104 
     39 O          26.3006  -48.8645  -55.1434 O.2       7 UNK        -0.5100 
     40 CA         28.5912  -48.8709  -54.4497 C.3       6 UNK         0.0396 
     41 CB         28.6401  -49.6125  -53.1052 C.3       6 UNK        -0.1801 
     42 N          29.9000  -48.9828  -55.1082 N.am      6 UNK        -0.4747 
     43 C          30.2025  -48.5337  -56.3394 C.2       6 UNK         0.5012 
     44 O          29.4378  -47.8262  -56.9937 O.2       6 UNK        -0.5003 
     45 CA         31.5127  -49.0328  -56.9975 C.3       5 UNK         0.0782 
     46 C46        32.5514  -47.8975  -57.1655 C.3       11 UNK        -0.0868 
     47 S47        32.2472  -46.9241  -58.6747 S.3       11 UNK        -0.2515 
     48 C48        33.0961  -45.3651  -58.2634 C.3       11 UNK         0.0199 
     49 N          32.1101  -50.1873  -56.3224 N.am      5 UNK        -0.4607 
     50 C          31.5422  -51.3843  -56.1173 C.2       4 UNK         0.5031 
     51 O          30.4464  -51.7066  -56.5776 O.2       4 UNK        -0.5119 
     52 CA         32.2951  -52.3557  -55.1847 C.3       4 UNK         0.0263 
     53 CB         32.9333  -53.4930  -55.9980 C.3       4 UNK        -0.1967 
     54 N          33.3287  -51.7098  -54.3595 N.am      4 UNK        -0.4237 
     55 C          33.1060  -50.7464  -53.4521 C.2       3 UNK         0.4908 
     56 O          31.9805  -50.3356  -53.1565 O.2       3 UNK        -0.5102 
     57 CA         34.3573  -50.0921  -52.8505 C.3       3 UNK         0.0241 
     58 CB         35.0928  -49.2552  -53.9141 C.3       3 UNK        -0.1971 
     59 N          33.9815  -49.2025  -51.7540 N.am      3 UNK        -0.4139 
     60 C          34.3340  -49.3609  -50.4723 C.2       2 UNK         0.5016 
     61 O          35.0422  -50.2878  -50.0726 O.2       2 UNK        -0.5319 
     62 CA         33.7999  -48.3278  -49.4560 C.3       2 UNK         0.0286 
     63 CB         34.7650  -48.1113  -48.2700 C.3       2 UNK        -0.1963 
     64 N          33.4066  -47.0404  -50.0472 N.am      2 UNK        -0.4790 
     65 C          34.1848  -46.1564  -50.6951 C.2       1 UNK         0.5024 
     66 O          35.3965  -46.3030  -50.8642 O.2       1 UNK        -0.4888 
     67 H67        29.8033  -45.1035  -52.8529 H         1 UNK         0.0892 
     68 H68        29.7523  -46.8408  -52.5410 H         1 UNK         0.0892 
     69 H69        30.1992  -46.2356  -54.1450 H         1 UNK         0.0892 
     70 H70        31.3900  -44.5753  -51.3254 H         1 UNK         0.3107 
     71 H71        33.3421  -44.2633  -50.3608 H         1 UNK         0.0773 
     72 H72        34.3922  -44.6428  -53.2074 H         1 UNK         0.0680 
     73 H73        35.3171  -43.9231  -51.9077 H         1 UNK         0.0680 
     74 H74        33.5803  -41.1884  -54.6074 H         1 UNK         0.0650 
     75 H75        34.8061  -42.4302  -54.6206 H         1 UNK         0.0650 
     76 H76        34.4041  -43.8747  -56.4302 H         1 UNK         0.1397 
     77 H77        30.4388  -45.1197  -57.5024 H         1 UNK         0.1363 
     78 H78        31.0328  -42.4509  -54.2038 H         1 UNK         0.1355 
     79 H79        28.6699  -44.7837  -55.6364 H         1 UNK         0.0707 
     80 H80        28.8725  -43.4128  -54.5703 H         1 UNK         0.0707 
     81 H81        26.8184  -41.0159  -55.8835 H         1 UNK         0.1034 
     82 H82        26.8816  -42.3747  -54.8168 H         1 UNK         0.1034 
     83 H83        24.6727  -42.1625  -55.7300 H         1 UNK         0.0482 
     84 H84        24.7566  -43.8460  -58.6945 H         1 UNK         0.3460 
     85 H85        24.5252  -42.4385  -59.7033 H         1 UNK         0.3460 
     86 H86        26.1170  -44.6036  -56.4106 H         1 UNK         0.2989 
     87 H87        24.4090  -46.5515  -55.1378 H         1 UNK         0.0559 
     88 H88        22.0209  -46.5714  -55.7759 H         1 UNK         0.0848 
     89 H89        22.8314  -47.9609  -56.4768 H         1 UNK         0.0848 
     90 H90        22.4382  -46.5682  -57.4839 H         1 UNK         0.0848 
     91 H91        25.7896  -47.4983  -56.5699 H         1 UNK         0.3144 
     92 H92        26.1241  -47.6718  -60.0163 H         1 UNK         0.0727 
     93 H93        28.5282  -46.9440  -59.7710 H         1 UNK         0.0790 
     94 H94        28.0838  -45.9996  -58.3500 H         1 UNK         0.0790 
     95 H95        27.4272  -45.5832  -59.9231 H         1 UNK         0.0790 
     96 H96        27.8165  -48.4554  -57.7959 H         1 UNK         0.3215 
     97 H97        25.8638  -51.1895  -56.7389 H         1 UNK         0.0863 
     98 H98        27.6867  -52.7393  -57.4141 H         1 UNK         0.0808 
     99 H99        28.2939  -51.5605  -58.5752 H         1 UNK         0.0808 
    100 H100       26.7175  -52.3042  -58.8124 H         1 UNK         0.0808 
    101 H101       28.6128  -50.6900  -56.2717 H         1 UNK         0.3118 
    102 H102       28.4050  -47.8135  -54.2608 H         1 UNK         0.0546 
    103 H103       27.6979  -49.5083  -52.5654 H         1 UNK         0.0828 
    104 H104       29.4281  -49.2238  -52.4604 H         1 UNK         0.0828 
    105 H105       28.8232  -50.6791  -53.2421 H         1 UNK         0.0828 
    106 H106       30.6008  -49.5243  -54.6131 H         1 UNK         0.3005 
    107 H107       31.2284  -49.3934  -57.9889 H         1 UNK         0.1257 
    108 H108       33.5582  -48.3070  -57.2634 H         1 UNK         0.0775 
    109 H109       32.5776  -47.2524  -56.2842 H         1 UNK         0.0775 
    110 H110       34.1465  -45.5901  -58.0712 H         1 UNK         0.0840 
    111 H111       33.0759  -44.7190  -59.1418 H         1 UNK         0.0840 
    112 H112       33.0080  -50.0254  -55.8936 H         1 UNK         0.2987 
    113 H113       31.5543  -52.7883  -54.5089 H         1 UNK         0.0785 
    114 H114       33.6984  -53.1218  -56.6812 H         1 UNK         0.0798 
    115 H115       32.1843  -54.0112  -56.5987 H         1 UNK         0.0798 
    116 H116       33.3938  -54.2372  -55.3478 H         1 UNK         0.0798 
    117 H117       34.2825  -51.9907  -54.5399 H         1 UNK         0.3079 
    118 H118       35.0201  -50.8858  -52.5000 H         1 UNK         0.0794 
    119 H119       34.4480  -48.4836  -54.3381 H         1 UNK         0.0786 
    120 H120       35.4518  -49.8745  -54.7367 H         1 UNK         0.0786 
    121 H121       35.9631  -48.7566  -53.4865 H         1 UNK         0.0786 
    122 H122       33.3670  -48.4361  -52.0104 H         1 UNK         0.3032 
    123 H123       32.8849  -48.7663  -49.0540 H         1 UNK         0.1094 
    124 H124       35.7381  -47.7469  -48.6006 H         1 UNK         0.0794 
    125 H125       34.3622  -47.3934  -47.5556 H         1 UNK         0.0794 
    126 H126       34.9357  -49.0419  -47.7274 H         1 UNK         0.0794 
    127 H127       32.4218  -46.8200  -49.9845 H         1 UNK         0.3016 
@<TRIPOS>BOND
     1    1    2 1    
     2    1   67 1    
     3    1   68 1    
     4    1   69 1    
     5    2    3 2    
     6    2    4 am   BACKBONE|DICT|INTERRES
     7    4    5 1    
     8    4   70 1    
     9    5    6 1    
    10    5   65 1    
    11    5   71 1    
    12    6    7 1    
    13    6   72 1    
    14    6   73 1    
    15    7    8 1    
    16    8    9 1    
    17    8   74 1    
    18    8   75 1    
    19    9   10 ar   
    20    9   14 ar   
    21   10   11 ar   
    22   10   76 1    
    23   11   12 ar   
    24   11   48 1    
    25   12   13 ar   
    26   12   77 1    
    27   13   14 ar   
    28   13   15 1    
    29   14   78 1    
    30   15   16 1    
    31   15   79 1    
    32   15   80 1    
    33   16   17 1    
    34   17   18 1    
    35   17   81 1    
    36   17   82 1    
    37   18   19 1    
    38   18   22 1    
    39   18   83 1    
    40   19   20 am   BACKBONE|DICT|INTERRES
    41   19   21 2    
    42   20   84 1    
    43   20   85 1    
    44   22   23 am   BACKBONE|DICT|INTERRES
    45   22   86 1    
    46   23   24 2    
    47   23   25 1    
    48   25   26 1    
    49   25   27 1    
    50   25   87 1    
    51   26   88 1    
    52   26   89 1    
    53   26   90 1    
    54   27   28 am   BACKBONE|DICT|INTERRES
    55   27   91 1    
    56   28   29 2    
    57   28   30 1    
    58   30   31 1    
    59   30   32 1    
    60   30   92 1    
    61   31   93 1    
    62   31   94 1    
    63   31   95 1    
    64   32   33 am   BACKBONE|DICT|INTERRES
    65   32   96 1    
    66   33   34 2    
    67   33   35 1    
    68   35   36 1    
    69   35   37 1    
    70   35   97 1    
    71   36   98 1    
    72   36   99 1    
    73   36  100 1    
    74   37   38 am   BACKBONE|DICT|INTERRES
    75   37  101 1    
    76   38   39 2    
    77   38   40 1    
    78   40   41 1    
    79   40   42 1    
    80   40  102 1    
    81   41  103 1    
    82   41  104 1    
    83   41  105 1    
    84   42   43 am   BACKBONE|DICT|INTERRES
    85   42  106 1    
    86   43   44 2    
    87   43   45 1    
    88   45   46 1    
    89   45   49 1    
    90   45  107 1    
    91   46   47 1    
    92   46  108 1    
    93   46  109 1    
    94   47   48 1    
    95   48  110 1    
    96   48  111 1    
    97   49   50 am   BACKBONE|DICT|INTERRES
    98   49  112 1    
    99   50   51 2    
   100   50   52 1    
   101   52   53 1    
   102   52   54 1    
   103   52  113 1    
   104   53  114 1    
   105   53  115 1    
   106   53  116 1    
   107   54   55 am   BACKBONE|DICT|INTERRES
   108   54  117 1    
   109   55   56 2    
   110   55   57 1    
   111   57   58 1    
   112   57   59 1    
   113   57  118 1    
   114   58  119 1    
   115   58  120 1    
   116   58  121 1    
   117   59   60 am   BACKBONE|DICT|INTERRES
   118   59  122 1    
   119   60   61 2    
   120   60   62 1    
   121   62   63 1    
   122   62   64 1    
   123   62  123 1    
   124   63  124 1    
   125   63  125 1    
   126   63  126 1    
   127   64   65 am   BACKBONE|DICT|INTERRES
   128   64  127 1    
   129   65   66 2    
@<TRIPOS>SUBSTRUCTURE
     1 UNK         1 GROUP             0       ****    0 ROOT    
