@<TRIPOS>MOLECULE
3R134
127   129    1
SMALL
USER_CHARGES


@<TRIPOS>ATOM
      1 CA         37.4119  -46.8251  -54.6093 C.3       0 UNK        -0.1968 
      2 C          36.0112  -46.7412  -54.0245 C.2       0 UNK         0.4852 
      3 O          35.3517  -47.7696  -53.8689 O.2       0 UNK        -0.5359 
      4 N          35.5553  -45.5298  -53.6769 N.am      1 UNK        -0.4300 
      5 CA         34.2071  -45.2106  -53.1750 C.3       1 UNK         0.0863 
      6 C6         34.0000  -43.6828  -53.0392 C.3       11 UNK        -0.0953 
      7 S7         34.1735  -42.8317  -54.6450 S.3       11 UNK        -0.2369 
      8 C8         32.4902  -42.1991  -54.9355 C.3       11 UNK         0.0226 
      9 C9         31.4841  -43.3065  -55.2216 C.ar      11 UNK        -0.0699 
     10 C10        30.5755  -43.7050  -54.2357 C.ar      11 UNK        -0.0804 
     11 C11        29.6191  -44.6889  -54.5035 C.ar      11 UNK        -0.0871 
     12 C12        29.5827  -45.2757  -55.7710 C.ar      11 UNK        -0.1008 
     13 C13        30.4812  -44.8883  -56.7696 C.ar      11 UNK        -0.0735 
     14 C14        31.4336  -43.9039  -56.4859 C.ar      11 UNK        -0.0945 
     15 C15        30.4289  -45.5382  -58.1494 C.3       11 UNK         0.0169 
     16 S16        28.7486  -45.6041  -58.8550 S.3       11 UNK        -0.2669 
     17 C17        28.4363  -43.8590  -59.2937 C.3       11 UNK        -0.0850 
     18 CA         27.9133  -42.9693  -58.1221 C.3       10 UNK         0.0855 
     19 C          27.5877  -41.5104  -58.5664 C.2       10 UNK         0.5543 
     20 N          28.4410  -40.8890  -59.3704 N.am      10 UNK        -0.7343 
     21 O          26.5919  -40.9115  -58.1626 O.2       10 UNK        -0.5027 
     22 N          26.8362  -43.5873  -57.3293 N.am      10 UNK        -0.4495 
     23 C          25.6342  -43.9743  -57.7704 C.2       10 UNK         0.4903 
     24 O          25.2747  -43.9474  -58.9495 O.2       10 UNK        -0.4860 
     25 CA         24.6493  -44.4540  -56.6920 C.3       9 UNK         0.0227 
     26 CB         23.3293  -43.6661  -56.7564 C.3       9 UNK        -0.1964 
     27 N          24.3673  -45.8835  -56.8155 N.am      9 UNK        -0.4231 
     28 C          25.2192  -46.8619  -56.4829 C.2       9 UNK         0.5014 
     29 O          26.3465  -46.6572  -56.0298 O.2       9 UNK        -0.5270 
     30 CA         24.7084  -48.3110  -56.5865 C.3       8 UNK         0.0284 
     31 CB         23.4012  -48.4913  -57.3951 C.3       8 UNK        -0.1977 
     32 N          25.7690  -49.2222  -57.0271 N.am      8 UNK        -0.4342 
     33 C          26.2903  -49.3539  -58.2567 C.2       8 UNK         0.5039 
     34 O          25.8710  -48.7468  -59.2433 O.2       8 UNK        -0.5547 
     35 CA         27.4724  -50.3332  -58.4371 C.3       7 UNK         0.0281 
     36 CB         28.5881  -49.7065  -59.2933 C.3       7 UNK        -0.1963 
     37 N          28.0479  -50.7834  -57.1658 N.am      7 UNK        -0.4444 
     38 C          27.6213  -51.8340  -56.4464 C.2       7 UNK         0.5104 
     39 O          26.7418  -52.6058  -56.8280 O.2       7 UNK        -0.5100 
     40 CA         28.2399  -52.0383  -55.0445 C.3       6 UNK         0.0396 
     41 CB         29.3560  -53.0926  -55.1004 C.3       6 UNK        -0.1801 
     42 N          28.7747  -50.8071  -54.4532 N.am      6 UNK        -0.4747 
     43 C          28.0592  -49.6959  -54.2144 C.2       6 UNK         0.5012 
     44 O          26.8295  -49.6714  -54.2687 O.2       6 UNK        -0.5003 
     45 CA         28.8263  -48.3776  -53.9647 C.3       5 UNK         0.0782 
     46 C46        28.5214  -47.8068  -52.5602 C.3       11 UNK        -0.0868 
     47 S47        29.3431  -46.2162  -52.2058 S.3       11 UNK        -0.2515 
     48 C48        28.6106  -45.0847  -53.4318 C.3       11 UNK         0.0199 
     49 N          30.2661  -48.4627  -54.2498 N.am      5 UNK        -0.4607 
     50 C          30.8000  -48.7091  -55.4547 C.2       4 UNK         0.5031 
     51 O          30.1236  -48.8462  -56.4727 O.2       4 UNK        -0.5119 
     52 CA         32.3231  -48.9112  -55.5470 C.3       4 UNK         0.0263 
     53 CB         32.9891  -47.7023  -56.2217 C.3       4 UNK        -0.1967 
     54 N          32.9969  -49.2017  -54.2746 N.am      4 UNK        -0.4237 
     55 C          32.7612  -50.2716  -53.4982 C.2       3 UNK         0.4908 
     56 O          31.8695  -51.0908  -53.7270 O.2       3 UNK        -0.5102 
     57 CA         33.6543  -50.4740  -52.2639 C.3       3 UNK         0.0241 
     58 CB         34.8612  -51.3555  -52.6250 C.3       3 UNK        -0.1971 
     59 N          34.1387  -49.2088  -51.7033 N.am      3 UNK        -0.4139 
     60 C          33.9221  -48.7884  -50.4477 C.2       2 UNK         0.5016 
     61 O          33.2736  -49.4231  -49.6145 O.2       2 UNK        -0.5319 
     62 CA         34.5397  -47.4369  -50.0305 C.3       2 UNK         0.0286 
     63 CB         35.8619  -47.6614  -49.2789 C.3       2 UNK        -0.1963 
     64 N          34.7795  -46.5325  -51.1580 N.am      2 UNK        -0.4790 
     65 C          33.8108  -45.9396  -51.8702 C.2       1 UNK         0.5024 
     66 O          32.6262  -45.9818  -51.5460 O.2       1 UNK        -0.4888 
     67 H67        38.0390  -47.4645  -53.9888 H         1 UNK         0.0892 
     68 H68        37.3723  -47.2544  -55.6100 H         1 UNK         0.0892 
     69 H69        37.8855  -45.8460  -54.6779 H         1 UNK         0.0892 
     70 H70        36.1479  -44.7256  -53.8280 H         1 UNK         0.3107 
     71 H71        33.5016  -45.5672  -53.9263 H         1 UNK         0.0773 
     72 H72        34.7260  -43.2587  -52.3433 H         1 UNK         0.0680 
     73 H73        33.0172  -43.4574  -52.6218 H         1 UNK         0.0680 
     74 H74        32.5187  -41.5146  -55.7845 H         1 UNK         0.0650 
     75 H75        32.1764  -41.6017  -54.0781 H         1 UNK         0.0650 
     76 H76        30.6037  -43.2432  -53.2583 H         1 UNK         0.1397 
     77 H77        28.8405  -46.0243  -56.0028 H         1 UNK         0.1363 
     78 H78        32.1343  -43.5945  -57.2492 H         1 UNK         0.1355 
     79 H79        31.0955  -45.0333  -58.8499 H         1 UNK         0.0707 
     80 H80        30.7887  -46.5624  -58.0621 H         1 UNK         0.0707 
     81 H81        29.3569  -43.4473  -59.7086 H         1 UNK         0.1034 
     82 H82        27.7154  -43.8542  -60.1130 H         1 UNK         0.1034 
     83 H83        28.7311  -42.8521  -57.4122 H         1 UNK         0.0482 
     84 H84        28.2426  -39.9404  -59.6486 H         1 UNK         0.3460 
     85 H85        29.2836  -41.3363  -59.6937 H         1 UNK         0.3460 
     86 H86        27.0291  -43.6681  -56.3423 H         1 UNK         0.2989 
     87 H87        25.0885  -44.2783  -55.7072 H         1 UNK         0.0559 
     88 H88        22.6564  -43.9493  -55.9468 H         1 UNK         0.0848 
     89 H89        22.8061  -43.8255  -57.7002 H         1 UNK         0.0848 
     90 H90        23.5126  -42.5946  -56.6645 H         1 UNK         0.0848 
     91 H91        23.4727  -46.1383  -57.2073 H         1 UNK         0.3144 
     92 H92        24.4877  -48.6101  -55.5609 H         1 UNK         0.0727 
     93 H93        23.1304  -49.5445  -57.4709 H         1 UNK         0.0790 
     94 H94        23.4841  -48.0984  -58.4090 H         1 UNK         0.0790 
     95 H95        22.5643  -47.9858  -56.9119 H         1 UNK         0.0790 
     96 H96        26.2305  -49.7085  -56.2668 H         1 UNK         0.3215 
     97 H97        27.0858  -51.1998  -58.9774 H         1 UNK         0.0863 
     98 H98        29.4356  -50.3829  -59.4037 H         1 UNK         0.0808 
     99 H99        28.9542  -48.7764  -58.8570 H         1 UNK         0.0808 
    100 H100       28.2287  -49.4722  -60.2960 H         1 UNK         0.0808 
    101 H101       28.7807  -50.1885  -56.7842 H         1 UNK         0.3118 
    102 H102       27.4505  -52.4067  -54.3864 H         1 UNK         0.0546 
    103 H103       30.1876  -52.7659  -55.7262 H         1 UNK         0.0828 
    104 H104       28.9864  -54.0332  -55.5112 H         1 UNK         0.0828 
    105 H105       29.7507  -53.3059  -54.1068 H         1 UNK         0.0828 
    106 H106       29.7825  -50.7597  -54.3467 H         1 UNK         0.3005 
    107 H107       28.4039  -47.6891  -54.6940 H         1 UNK         0.1257 
    108 H108       28.8297  -48.5169  -51.7906 H         1 UNK         0.0775 
    109 H109       27.4465  -47.6655  -52.4290 H         1 UNK         0.0775 
    110 H110       27.7200  -45.5279  -53.8796 H         1 UNK         0.0840 
    111 H111       28.2668  -44.1882  -52.9139 H         1 UNK         0.0840 
    112 H112       30.8850  -48.3459  -53.4610 H         1 UNK         0.2987 
    113 H113       32.4845  -49.7797  -56.1888 H         1 UNK         0.0785 
    114 H114       34.0722  -47.8113  -56.2673 H         1 UNK         0.0798 
    115 H115       32.7588  -46.7717  -55.7041 H         1 UNK         0.0798 
    116 H116       32.6428  -47.5975  -57.2492 H         1 UNK         0.0798 
    117 H117       33.7994  -48.6131  -54.0576 H         1 UNK         0.3079 
    118 H118       33.0529  -51.0102  -51.5268 H         1 UNK         0.0794 
    119 H119       34.5387  -52.3079  -53.0482 H         1 UNK         0.0786 
    120 H120       35.4634  -51.5798  -51.7444 H         1 UNK         0.0786 
    121 H121       35.5081  -50.8722  -53.3587 H         1 UNK         0.0786 
    122 H122       34.6784  -48.6154  -52.3287 H         1 UNK         0.3032 
    123 H123       33.8343  -46.9550  -49.3493 H         1 UNK         0.1094 
    124 H124       36.2740  -46.7219  -48.9102 H         1 UNK         0.0794 
    125 H125       35.7132  -48.3093  -48.4137 H         1 UNK         0.0794 
    126 H126       36.6129  -48.1334  -49.9138 H         1 UNK         0.0794 
    127 H127       35.7306  -46.4491  -51.4868 H         1 UNK         0.3016 
@<TRIPOS>BOND
     1    1    2 1    
     2    1   67 1    
     3    1   68 1    
     4    1   69 1    
     5    2    3 2    
     6    2    4 am   BACKBONE|DICT|INTERRES
     7    4    5 1    
     8    4   70 1    
     9    5    6 1    
    10    5   65 1    
    11    5   71 1    
    12    6    7 1    
    13    6   72 1    
    14    6   73 1    
    15    7    8 1    
    16    8    9 1    
    17    8   74 1    
    18    8   75 1    
    19    9   10 ar   
    20    9   14 ar   
    21   10   11 ar   
    22   10   76 1    
    23   11   12 ar   
    24   11   48 1    
    25   12   13 ar   
    26   12   77 1    
    27   13   14 ar   
    28   13   15 1    
    29   14   78 1    
    30   15   16 1    
    31   15   79 1    
    32   15   80 1    
    33   16   17 1    
    34   17   18 1    
    35   17   81 1    
    36   17   82 1    
    37   18   19 1    
    38   18   22 1    
    39   18   83 1    
    40   19   20 am   BACKBONE|DICT|INTERRES
    41   19   21 2    
    42   20   84 1    
    43   20   85 1    
    44   22   23 am   BACKBONE|DICT|INTERRES
    45   22   86 1    
    46   23   24 2    
    47   23   25 1    
    48   25   26 1    
    49   25   27 1    
    50   25   87 1    
    51   26   88 1    
    52   26   89 1    
    53   26   90 1    
    54   27   28 am   BACKBONE|DICT|INTERRES
    55   27   91 1    
    56   28   29 2    
    57   28   30 1    
    58   30   31 1    
    59   30   32 1    
    60   30   92 1    
    61   31   93 1    
    62   31   94 1    
    63   31   95 1    
    64   32   33 am   BACKBONE|DICT|INTERRES
    65   32   96 1    
    66   33   34 2    
    67   33   35 1    
    68   35   36 1    
    69   35   37 1    
    70   35   97 1    
    71   36   98 1    
    72   36   99 1    
    73   36  100 1    
    74   37   38 am   BACKBONE|DICT|INTERRES
    75   37  101 1    
    76   38   39 2    
    77   38   40 1    
    78   40   41 1    
    79   40   42 1    
    80   40  102 1    
    81   41  103 1    
    82   41  104 1    
    83   41  105 1    
    84   42   43 am   BACKBONE|DICT|INTERRES
    85   42  106 1    
    86   43   44 2    
    87   43   45 1    
    88   45   46 1    
    89   45   49 1    
    90   45  107 1    
    91   46   47 1    
    92   46  108 1    
    93   46  109 1    
    94   47   48 1    
    95   48  110 1    
    96   48  111 1    
    97   49   50 am   BACKBONE|DICT|INTERRES
    98   49  112 1    
    99   50   51 2    
   100   50   52 1    
   101   52   53 1    
   102   52   54 1    
   103   52  113 1    
   104   53  114 1    
   105   53  115 1    
   106   53  116 1    
   107   54   55 am   BACKBONE|DICT|INTERRES
   108   54  117 1    
   109   55   56 2    
   110   55   57 1    
   111   57   58 1    
   112   57   59 1    
   113   57  118 1    
   114   58  119 1    
   115   58  120 1    
   116   58  121 1    
   117   59   60 am   BACKBONE|DICT|INTERRES
   118   59  122 1    
   119   60   61 2    
   120   60   62 1    
   121   62   63 1    
   122   62   64 1    
   123   62  123 1    
   124   63  124 1    
   125   63  125 1    
   126   63  126 1    
   127   64   65 am   BACKBONE|DICT|INTERRES
   128   64  127 1    
   129   65   66 2    
@<TRIPOS>SUBSTRUCTURE
     1 UNK         1 GROUP             0       ****    0 ROOT    
