@<TRIPOS>MOLECULE
3R134
127   129    1
SMALL
USER_CHARGES


@<TRIPOS>ATOM
      1 CA         37.6665  -45.0859  -49.2838 C.3       0 UNK        -0.1968 
      2 C          37.3981  -45.2554  -50.7722 C.2       0 UNK         0.4852 
      3 O          38.3256  -45.1457  -51.5762 O.2       0 UNK        -0.5359 
      4 N          36.1373  -45.5136  -51.1440 N.am      1 UNK        -0.4300 
      5 CA         35.7088  -45.7764  -52.5210 C.3       1 UNK         0.0863 
      6 C6         34.1810  -45.5659  -52.6764 C.3       11 UNK        -0.0953 
      7 S7         33.7058  -45.1917  -54.4006 S.3       11 UNK        -0.2369 
      8 C8         33.2352  -43.4355  -54.2934 C.3       11 UNK         0.0226 
      9 C9         31.7307  -43.2558  -54.1352 C.ar      11 UNK        -0.0699 
     10 C10        31.1029  -43.5207  -52.9131 C.ar      11 UNK        -0.0804 
     11 C11        29.7237  -43.3363  -52.7667 C.ar      11 UNK        -0.0871 
     12 C12        28.9721  -42.8774  -53.8514 C.ar      11 UNK        -0.1008 
     13 C13        29.5906  -42.5925  -55.0717 C.ar      11 UNK        -0.0735 
     14 C14        30.9668  -42.7918  -55.2111 C.ar      11 UNK        -0.0945 
     15 C15        28.7743  -42.0396  -56.2276 C.3       11 UNK         0.0169 
     16 S16        28.3389  -43.3460  -57.4094 S.3       11 UNK        -0.2669 
     17 C17        26.9529  -42.5330  -58.2820 C.3       11 UNK        -0.0850 
     18 CA         26.2485  -43.4508  -59.3157 C.3       10 UNK         0.0855 
     19 C          27.0302  -43.5271  -60.6618 C.2       10 UNK         0.5543 
     20 N          27.4745  -44.6896  -61.1243 N.am      10 UNK        -0.7343 
     21 O          27.2237  -42.5022  -61.3112 O.2       10 UNK        -0.5027 
     22 N          25.9054  -44.7443  -58.7120 N.am      10 UNK        -0.4495 
     23 C          24.9890  -45.6074  -59.1583 C.2       10 UNK         0.4903 
     24 O          24.2102  -45.3659  -60.0820 O.2       10 UNK        -0.4860 
     25 CA         24.9588  -46.9752  -58.4464 C.3       9 UNK         0.0227 
     26 CB         24.2618  -48.0668  -59.2846 C.3       9 UNK        -0.1964 
     27 N          26.2845  -47.4380  -58.0080 N.am      9 UNK        -0.4231 
     28 C          27.3710  -47.6391  -58.7735 C.2       9 UNK         0.5014 
     29 O          27.4311  -47.3705  -59.9739 O.2       9 UNK        -0.5270 
     30 CA         28.5965  -48.2630  -58.0841 C.3       8 UNK         0.0284 
     31 CB         29.4155  -47.1906  -57.3457 C.3       8 UNK        -0.1977 
     32 N          28.2254  -49.3290  -57.1523 N.am      8 UNK        -0.4342 
     33 C          27.6287  -50.4809  -57.4940 C.2       8 UNK         0.5039 
     34 O          27.4271  -50.8369  -58.6556 O.2       8 UNK        -0.5547 
     35 CA         27.1441  -51.3711  -56.3400 C.3       7 UNK         0.0281 
     36 CB         28.2859  -52.2516  -55.8051 C.3       7 UNK        -0.1963 
     37 N          26.5723  -50.5667  -55.2561 N.am      7 UNK        -0.4444 
     38 C          25.3339  -50.0519  -55.2749 C.2       7 UNK         0.5104 
     39 O          24.5163  -50.2726  -56.1680 O.2       7 UNK        -0.5100 
     40 CA         24.9275  -49.1347  -54.1063 C.3       6 UNK         0.0396 
     41 CB         24.1651  -49.9366  -53.0397 C.3       6 UNK        -0.1801 
     42 N          26.0585  -48.4496  -53.4754 N.am      6 UNK        -0.4747 
     43 C          26.7437  -47.4344  -54.0230 C.2       6 UNK         0.5012 
     44 O          26.4868  -46.9545  -55.1278 O.2       6 UNK        -0.5003 
     45 CA         27.9594  -46.9220  -53.2190 C.3       5 UNK         0.0782 
     46 C46        27.5183  -45.8783  -52.1601 C.3       11 UNK        -0.0868 
     47 S47        28.8807  -45.3588  -51.0552 S.3       11 UNK        -0.2515 
     48 C48        29.0545  -43.5861  -51.4232 C.3       11 UNK         0.0199 
     49 N          28.7379  -48.0171  -52.6213 N.am      5 UNK        -0.4607 
     50 C          29.3094  -49.0167  -53.3000 C.2       4 UNK         0.5031 
     51 O          29.1414  -49.2078  -54.5055 O.2       4 UNK        -0.5119 
     52 CA         30.1819  -49.9930  -52.4958 C.3       4 UNK         0.0263 
     53 CB         29.3519  -51.2041  -52.0404 C.3       4 UNK        -0.1967 
     54 N          31.3200  -50.4534  -53.2954 N.am      4 UNK        -0.4237 
     55 C          32.3122  -49.6511  -53.7016 C.2       3 UNK         0.4908 
     56 O          32.4345  -48.4782  -53.3413 O.2       3 UNK        -0.5102 
     57 CA         33.3189  -50.2474  -54.6907 C.3       3 UNK         0.0241 
     58 CB         32.6950  -50.3992  -56.0910 C.3       3 UNK        -0.1971 
     59 N          34.4693  -49.3523  -54.7637 N.am      3 UNK        -0.4139 
     60 C          35.7410  -49.7155  -54.9543 C.2       2 UNK         0.5016 
     61 O          36.0955  -50.8771  -55.1611 O.2       2 UNK        -0.5319 
     62 CA         36.8070  -48.6026  -54.9165 C.3       2 UNK         0.0286 
     63 CB         37.3035  -48.2894  -56.3379 C.3       2 UNK        -0.1963 
     64 N          36.3592  -47.3539  -54.2866 N.am      2 UNK        -0.4790 
     65 C          36.1508  -47.1872  -52.9733 C.2       1 UNK         0.5024 
     66 O          36.2814  -48.0916  -52.1441 O.2       1 UNK        -0.4888 
     67 H67        38.3823  -45.8342  -48.9446 H         1 UNK         0.0892 
     68 H68        38.0855  -44.0993  -49.0878 H         1 UNK         0.0892 
     69 H69        36.7585  -45.1922  -48.6903 H         1 UNK         0.0892 
     70 H70        35.4278  -45.6306  -50.4351 H         1 UNK         0.3107 
     71 H71        36.2203  -45.0465  -53.1532 H         1 UNK         0.0773 
     72 H72        33.6212  -46.4329  -52.3240 H         1 UNK         0.0680 
     73 H73        33.8555  -44.7408  -52.0425 H         1 UNK         0.0680 
     74 H74        33.5779  -42.9391  -55.2025 H         1 UNK         0.0650 
     75 H75        33.7603  -42.9442  -53.4733 H         1 UNK         0.0650 
     76 H76        31.6855  -43.8691  -52.0721 H         1 UNK         0.1397 
     77 H77        27.9074  -42.7218  -53.7415 H         1 UNK         0.1363 
     78 H78        31.4426  -42.5744  -56.1578 H         1 UNK         0.1355 
     79 H79        27.8664  -41.5675  -55.8484 H         1 UNK         0.0707 
     80 H80        29.3345  -41.2581  -56.7432 H         1 UNK         0.0707 
     81 H81        26.2209  -42.2234  -57.5343 H         1 UNK         0.1034 
     82 H82        27.3055  -41.6089  -58.7447 H         1 UNK         0.1034 
     83 H83        25.3041  -42.9663  -59.5709 H         1 UNK         0.0482 
     84 H84        27.3285  -45.5551  -60.6132 H         1 UNK         0.3460 
     85 H85        27.9704  -44.7091  -62.0006 H         1 UNK         0.3460 
     86 H86        26.5107  -45.0357  -57.9576 H         1 UNK         0.2989 
     87 H87        24.3739  -46.8322  -57.5368 H         1 UNK         0.0559 
     88 H88        23.2298  -47.7933  -59.5074 H         1 UNK         0.0848 
     89 H89        24.2359  -49.0178  -58.7520 H         1 UNK         0.0848 
     90 H90        24.7693  -48.2299  -60.2360 H         1 UNK         0.0848 
     91 H91        26.3793  -47.5899  -57.0077 H         1 UNK         0.3144 
     92 H92        29.2275  -48.7037  -58.8586 H         1 UNK         0.0727 
     93 H93        28.8408  -46.7143  -56.5510 H         1 UNK         0.0790 
     94 H94        29.7348  -46.4036  -58.0303 H         1 UNK         0.0790 
     95 H95        30.3136  -47.6157  -56.8967 H         1 UNK         0.0790 
     96 H96        28.4373  -49.1726  -56.1675 H         1 UNK         0.3215 
     97 H97        26.3677  -52.0326  -56.7314 H         1 UNK         0.0863 
     98 H98        27.9438  -52.8970  -54.9961 H         1 UNK         0.0808 
     99 H99        29.1232  -51.6601  -55.4354 H         1 UNK         0.0808 
    100 H100       28.6735  -52.8993  -56.5926 H         1 UNK         0.0808 
    101 H101       27.2040  -50.2795  -54.5213 H         1 UNK         0.3118 
    102 H102       24.2518  -48.3755  -54.5063 H         1 UNK         0.0546 
    103 H103       24.7906  -50.7072  -52.5875 H         1 UNK         0.0828 
    104 H104       23.2972  -50.4355  -53.4736 H         1 UNK         0.0828 
    105 H105       23.7981  -49.2896  -52.2427 H         1 UNK         0.0828 
    106 H106       26.3497  -48.7871  -52.5688 H         1 UNK         0.3005 
    107 H107       28.6198  -46.4185  -53.9295 H         1 UNK         0.1257 
    108 H108       27.0892  -45.0026  -52.6505 H         1 UNK         0.0775 
    109 H109       26.7281  -46.2850  -51.5261 H         1 UNK         0.0775 
    110 H110       28.0763  -43.1049  -51.3744 H         1 UNK         0.0840 
    111 H111       29.6541  -43.1251  -50.6369 H         1 UNK         0.0840 
    112 H112       28.9300  -47.9205  -51.6343 H         1 UNK         0.2987 
    113 H113       30.5693  -49.4784  -51.6137 H         1 UNK         0.0785 
    114 H114       28.5102  -50.8914  -51.4210 H         1 UNK         0.0798 
    115 H115       29.9509  -51.8926  -51.4440 H         1 UNK         0.0798 
    116 H116       28.9453  -51.7602  -52.8853 H         1 UNK         0.0798 
    117 H117       31.2726  -51.3952  -53.6548 H         1 UNK         0.3079 
    118 H118       33.6318  -51.2237  -54.3139 H         1 UNK         0.0794 
    119 H119       32.3488  -49.4412  -56.4816 H         1 UNK         0.0786 
    120 H120       33.4120  -50.8107  -56.8016 H         1 UNK         0.0786 
    121 H121       31.8363  -51.0715  -56.0724 H         1 UNK         0.0786 
    122 H122       34.2621  -48.3901  -54.5241 H         1 UNK         0.3032 
    123 H123       37.6489  -48.9903  -54.3380 H         1 UNK         0.1094 
    124 H124       36.5068  -47.8855  -56.9640 H         1 UNK         0.0794 
    125 H125       38.1206  -47.5677  -56.3241 H         1 UNK         0.0794 
    126 H126       37.6783  -49.1890  -56.8285 H         1 UNK         0.0794 
    127 H127       36.2000  -46.5687  -54.9032 H         1 UNK         0.3016 
@<TRIPOS>BOND
     1    1    2 1    
     2    1   67 1    
     3    1   68 1    
     4    1   69 1    
     5    2    3 2    
     6    2    4 am   BACKBONE|DICT|INTERRES
     7    4    5 1    
     8    4   70 1    
     9    5    6 1    
    10    5   65 1    
    11    5   71 1    
    12    6    7 1    
    13    6   72 1    
    14    6   73 1    
    15    7    8 1    
    16    8    9 1    
    17    8   74 1    
    18    8   75 1    
    19    9   10 ar   
    20    9   14 ar   
    21   10   11 ar   
    22   10   76 1    
    23   11   12 ar   
    24   11   48 1    
    25   12   13 ar   
    26   12   77 1    
    27   13   14 ar   
    28   13   15 1    
    29   14   78 1    
    30   15   16 1    
    31   15   79 1    
    32   15   80 1    
    33   16   17 1    
    34   17   18 1    
    35   17   81 1    
    36   17   82 1    
    37   18   19 1    
    38   18   22 1    
    39   18   83 1    
    40   19   20 am   BACKBONE|DICT|INTERRES
    41   19   21 2    
    42   20   84 1    
    43   20   85 1    
    44   22   23 am   BACKBONE|DICT|INTERRES
    45   22   86 1    
    46   23   24 2    
    47   23   25 1    
    48   25   26 1    
    49   25   27 1    
    50   25   87 1    
    51   26   88 1    
    52   26   89 1    
    53   26   90 1    
    54   27   28 am   BACKBONE|DICT|INTERRES
    55   27   91 1    
    56   28   29 2    
    57   28   30 1    
    58   30   31 1    
    59   30   32 1    
    60   30   92 1    
    61   31   93 1    
    62   31   94 1    
    63   31   95 1    
    64   32   33 am   BACKBONE|DICT|INTERRES
    65   32   96 1    
    66   33   34 2    
    67   33   35 1    
    68   35   36 1    
    69   35   37 1    
    70   35   97 1    
    71   36   98 1    
    72   36   99 1    
    73   36  100 1    
    74   37   38 am   BACKBONE|DICT|INTERRES
    75   37  101 1    
    76   38   39 2    
    77   38   40 1    
    78   40   41 1    
    79   40   42 1    
    80   40  102 1    
    81   41  103 1    
    82   41  104 1    
    83   41  105 1    
    84   42   43 am   BACKBONE|DICT|INTERRES
    85   42  106 1    
    86   43   44 2    
    87   43   45 1    
    88   45   46 1    
    89   45   49 1    
    90   45  107 1    
    91   46   47 1    
    92   46  108 1    
    93   46  109 1    
    94   47   48 1    
    95   48  110 1    
    96   48  111 1    
    97   49   50 am   BACKBONE|DICT|INTERRES
    98   49  112 1    
    99   50   51 2    
   100   50   52 1    
   101   52   53 1    
   102   52   54 1    
   103   52  113 1    
   104   53  114 1    
   105   53  115 1    
   106   53  116 1    
   107   54   55 am   BACKBONE|DICT|INTERRES
   108   54  117 1    
   109   55   56 2    
   110   55   57 1    
   111   57   58 1    
   112   57   59 1    
   113   57  118 1    
   114   58  119 1    
   115   58  120 1    
   116   58  121 1    
   117   59   60 am   BACKBONE|DICT|INTERRES
   118   59  122 1    
   119   60   61 2    
   120   60   62 1    
   121   62   63 1    
   122   62   64 1    
   123   62  123 1    
   124   63  124 1    
   125   63  125 1    
   126   63  126 1    
   127   64   65 am   BACKBONE|DICT|INTERRES
   128   64  127 1    
   129   65   66 2    
@<TRIPOS>SUBSTRUCTURE
     1 UNK         1 GROUP             0       ****    0 ROOT    
