@<TRIPOS>MOLECULE
3R134
127   129    1
SMALL
USER_CHARGES


@<TRIPOS>ATOM
      1 CA         37.7870  -42.1726  -54.2090 C.3       0 UNK        -0.1968 
      2 C          36.5007  -42.6304  -54.8805 C.2       0 UNK         0.4852 
      3 O          35.7593  -41.8013  -55.4102 O.2       0 UNK        -0.5359 
      4 N          36.2347  -43.9397  -54.8660 N.am      1 UNK        -0.4300 
      5 CA         35.0625  -44.5802  -55.4582 C.3       1 UNK         0.0863 
      6 C6         33.7605  -44.3517  -54.6375 C.3       11 UNK        -0.0953 
      7 S7         33.8300  -45.0054  -52.9306 S.3       11 UNK        -0.2369 
      8 C8         32.9004  -43.7414  -52.0126 C.3       11 UNK         0.0226 
      9 C9         31.4001  -43.9858  -52.0843 C.ar      11 UNK        -0.0699 
     10 C10        30.7678  -44.7317  -51.0871 C.ar      11 UNK        -0.0804 
     11 C11        29.3850  -44.9282  -51.1169 C.ar      11 UNK        -0.0871 
     12 C12        28.6327  -44.3824  -52.1594 C.ar      11 UNK        -0.1008 
     13 C13        29.2539  -43.6527  -53.1813 C.ar      11 UNK        -0.0735 
     14 C14        30.6384  -43.4518  -53.1278 C.ar      11 UNK        -0.0945 
     15 C15        28.4679  -43.0377  -54.3379 C.3       11 UNK         0.0169 
     16 S16        26.9039  -43.8874  -54.7471 S.3       11 UNK        -0.2669 
     17 C17        26.5578  -43.1506  -56.3827 C.3       11 UNK        -0.0850 
     18 CA         26.7750  -44.1465  -57.5558 C.3       10 UNK         0.0855 
     19 C          26.4168  -43.5153  -58.9319 C.2       10 UNK         0.5543 
     20 N          27.2000  -43.7268  -59.9829 N.am      10 UNK        -0.7343 
     21 O          25.4028  -42.8329  -59.0558 O.2       10 UNK        -0.5027 
     22 N          28.1194  -44.7562  -57.5289 N.am      10 UNK        -0.4495 
     23 C          28.3589  -46.0346  -57.2247 C.2       10 UNK         0.4903 
     24 O          27.4813  -46.8480  -56.9305 O.2       10 UNK        -0.4860 
     25 CA         29.8260  -46.4822  -57.2080 C.3       9 UNK         0.0227 
     26 CB         30.4308  -46.2943  -55.8065 C.3       9 UNK        -0.1964 
     27 N          29.8664  -47.8986  -57.5557 N.am      9 UNK        -0.4231 
     28 C          30.0119  -48.3701  -58.8013 C.2       9 UNK         0.5014 
     29 O          30.3396  -47.6808  -59.7679 O.2       9 UNK        -0.5270 
     30 CA         29.7123  -49.8629  -59.0055 C.3       8 UNK         0.0284 
     31 CB         30.9225  -50.7247  -58.6112 C.3       8 UNK        -0.1977 
     32 N          28.5238  -50.2717  -58.2506 N.am      8 UNK        -0.4342 
     33 C          27.2700  -49.9845  -58.6275 C.2       8 UNK         0.5039 
     34 O          26.9833  -49.4236  -59.6862 O.2       8 UNK        -0.5547 
     35 CA         26.1423  -50.3629  -57.6637 C.3       7 UNK         0.0281 
     36 CB         26.4538  -51.5830  -56.7706 C.3       7 UNK        -0.1963 
     37 N          25.8490  -49.1947  -56.8440 N.am      7 UNK        -0.4444 
     38 C          24.6799  -48.9220  -56.2587 C.2       7 UNK         0.5104 
     39 O          23.6687  -49.6154  -56.3890 O.2       7 UNK        -0.5100 
     40 CA         24.6584  -47.6698  -55.3546 C.3       6 UNK         0.0396 
     41 CB         23.3910  -47.5804  -54.4795 C.3       6 UNK        -0.1801 
     42 N          25.8665  -47.5404  -54.5252 N.am      6 UNK        -0.4747 
     43 C          26.3544  -48.4523  -53.6701 C.2       6 UNK         0.5012 
     44 O          25.8090  -49.5311  -53.4233 O.2       6 UNK        -0.5003 
     45 CA         27.6520  -48.0876  -52.9218 C.3       5 UNK         0.0782 
     46 C46        27.2977  -47.7181  -51.4550 C.3       11 UNK        -0.0868 
     47 S47        28.7386  -47.5004  -50.3540 S.3       11 UNK        -0.2515 
     48 C48        28.7082  -45.7164  -50.0085 C.3       11 UNK         0.0199 
     49 N          28.6314  -49.1768  -52.9868 N.am      5 UNK        -0.4607 
     50 C          29.1618  -49.7315  -54.0835 C.2       4 UNK         0.5031 
     51 O          28.9168  -49.3837  -55.2421 O.2       4 UNK        -0.5119 
     52 CA         30.1967  -50.8379  -53.8260 C.3       4 UNK         0.0263 
     53 CB         30.1496  -51.9459  -54.8914 C.3       4 UNK        -0.1967 
     54 N          31.5392  -50.2591  -53.7739 N.am      4 UNK        -0.4237 
     55 C          32.0430  -49.6010  -52.7230 C.2       3 UNK         0.4908 
     56 O          31.4469  -49.4873  -51.6519 O.2       3 UNK        -0.5102 
     57 CA         33.4372  -48.9613  -52.8576 C.3       3 UNK         0.0241 
     58 CB         34.5309  -49.9188  -52.3455 C.3       3 UNK        -0.1971 
     59 N          33.7833  -48.4215  -54.1821 N.am      3 UNK        -0.4139 
     60 C          34.0003  -49.0677  -55.3379 C.2       2 UNK         0.5016 
     61 O          33.8061  -50.2749  -55.4852 O.2       2 UNK        -0.5319 
     62 CA         34.5017  -48.2359  -56.5401 C.3       2 UNK         0.0286 
     63 CB         33.7182  -48.5651  -57.8201 C.3       2 UNK        -0.1963 
     64 N          34.4502  -46.7855  -56.3216 N.am      2 UNK        -0.4790 
     65 C          35.3753  -46.0733  -55.6657 C.2       1 UNK         0.5024 
     66 O          36.4096  -46.5609  -55.2010 O.2       1 UNK        -0.4888 
     67 H67        38.4238  -41.6573  -54.9276 H         1 UNK         0.0892 
     68 H68        38.3503  -43.0092  -53.7950 H         1 UNK         0.0892 
     69 H69        37.5600  -41.4823  -53.3967 H         1 UNK         0.0892 
     70 H70        36.8879  -44.6003  -54.4615 H         1 UNK         0.3107 
     71 H71        34.9216  -44.1548  -56.4544 H         1 UNK         0.0773 
     72 H72        33.5475  -43.2828  -54.6037 H         1 UNK         0.0680 
     73 H73        32.9009  -44.7949  -55.1394 H         1 UNK         0.0680 
     74 H74        33.1472  -42.7447  -52.3813 H         1 UNK         0.0650 
     75 H75        33.2275  -43.7632  -50.9720 H         1 UNK         0.0650 
     76 H76        31.3519  -45.1533  -50.2802 H         1 UNK         0.1397 
     77 H77        27.5619  -44.5275  -52.1661 H         1 UNK         0.1363 
     78 H78        31.1271  -42.8728  -53.8993 H         1 UNK         0.1355 
     79 H79        28.2516  -41.9956  -54.1010 H         1 UNK         0.0707 
     80 H80        29.0963  -43.0324  -55.2295 H         1 UNK         0.0707 
     81 H81        25.5224  -42.8052  -56.3702 H         1 UNK         0.1034 
     82 H82        27.1656  -42.2554  -56.5246 H         1 UNK         0.1034 
     83 H83        26.0260  -44.9310  -57.4358 H         1 UNK         0.0482 
     84 H84        26.9544  -43.3164  -60.8703 H         1 UNK         0.3460 
     85 H85        28.0105  -44.3203  -59.9097 H         1 UNK         0.3460 
     86 H86        28.8877  -44.1442  -57.7624 H         1 UNK         0.2989 
     87 H87        30.4009  -45.8954  -57.9272 H         1 UNK         0.0559 
     88 H88        30.4899  -45.2376  -55.5465 H         1 UNK         0.0848 
     89 H89        29.8321  -46.7810  -55.0369 H         1 UNK         0.0848 
     90 H90        31.4375  -46.7059  -55.7473 H         1 UNK         0.0848 
     91 H91        29.5212  -48.5258  -56.8323 H         1 UNK         0.3144 
     92 H92        29.5176  -50.0280  -60.0677 H         1 UNK         0.0727 
     93 H93        30.6882  -51.7888  -58.6462 H         1 UNK         0.0790 
     94 H94        31.2871  -50.4872  -57.6120 H         1 UNK         0.0790 
     95 H95        31.7504  -50.5546  -59.3003 H         1 UNK         0.0790 
     96 H96        28.6681  -50.6771  -57.3364 H         1 UNK         0.3215 
     97 H97        25.2698  -50.5998  -58.2766 H         1 UNK         0.0863 
     98 H98        26.8013  -52.4304  -57.3631 H         1 UNK         0.0808 
     99 H99        27.2123  -51.3604  -56.0211 H         1 UNK         0.0808 
    100 H100       25.5612  -51.9100  -56.2371 H         1 UNK         0.0808 
    101 H101       26.5985  -48.5106  -56.7455 H         1 UNK         0.3118 
    102 H102       24.6575  -46.8101  -56.0263 H         1 UNK         0.0546 
    103 H103       22.4914  -47.5586  -55.0956 H         1 UNK         0.0828 
    104 H104       23.3898  -46.6738  -53.8747 H         1 UNK         0.0828 
    105 H105       23.3034  -48.4338  -53.8065 H         1 UNK         0.0828 
    106 H106       26.4118  -46.7072  -54.7063 H         1 UNK         0.3005 
    107 H107       28.1070  -47.2182  -53.4005 H         1 UNK         0.1257 
    108 H108       26.6858  -48.5017  -51.0027 H         1 UNK         0.0775 
    109 H109       26.6823  -46.8170  -51.4348 H         1 UNK         0.0775 
    110 H110       27.6833  -45.3755  -49.8546 H         1 UNK         0.0840 
    111 H111       29.2262  -45.5367  -49.0651 H         1 UNK         0.0840 
    112 H112       28.9726  -49.4899  -52.0884 H         1 UNK         0.2987 
    113 H113       29.9748  -51.3055  -52.8638 H         1 UNK         0.0785 
    114 H114       29.1650  -52.4137  -54.9213 H         1 UNK         0.0798 
    115 H115       30.8733  -52.7318  -54.6751 H         1 UNK         0.0798 
    116 H116       30.3616  -51.5654  -55.8874 H         1 UNK         0.0798 
    117 H117       32.1255  -50.3410  -54.6002 H         1 UNK         0.3079 
    118 H118       33.4318  -48.0954  -52.1932 H         1 UNK         0.0794 
    119 H119       34.3243  -50.2336  -51.3217 H         1 UNK         0.0786 
    120 H120       35.5095  -49.4385  -52.3451 H         1 UNK         0.0786 
    121 H121       34.5997  -50.8215  -52.9532 H         1 UNK         0.0786 
    122 H122       33.9362  -47.4226  -54.1947 H         1 UNK         0.3032 
    123 H123       35.5414  -48.5299  -56.7026 H         1 UNK         0.1094 
    124 H124       34.1116  -48.0220  -58.6796 H         1 UNK         0.0794 
    125 H125       33.7786  -49.6277  -58.0591 H         1 UNK         0.0794 
    126 H126       32.6659  -48.3087  -57.7146 H         1 UNK         0.0794 
    127 H127       33.6355  -46.3092  -56.6815 H         1 UNK         0.3016 
@<TRIPOS>BOND
     1    1    2 1    
     2    1   67 1    
     3    1   68 1    
     4    1   69 1    
     5    2    3 2    
     6    2    4 am   BACKBONE|DICT|INTERRES
     7    4    5 1    
     8    4   70 1    
     9    5    6 1    
    10    5   65 1    
    11    5   71 1    
    12    6    7 1    
    13    6   72 1    
    14    6   73 1    
    15    7    8 1    
    16    8    9 1    
    17    8   74 1    
    18    8   75 1    
    19    9   10 ar   
    20    9   14 ar   
    21   10   11 ar   
    22   10   76 1    
    23   11   12 ar   
    24   11   48 1    
    25   12   13 ar   
    26   12   77 1    
    27   13   14 ar   
    28   13   15 1    
    29   14   78 1    
    30   15   16 1    
    31   15   79 1    
    32   15   80 1    
    33   16   17 1    
    34   17   18 1    
    35   17   81 1    
    36   17   82 1    
    37   18   19 1    
    38   18   22 1    
    39   18   83 1    
    40   19   20 am   BACKBONE|DICT|INTERRES
    41   19   21 2    
    42   20   84 1    
    43   20   85 1    
    44   22   23 am   BACKBONE|DICT|INTERRES
    45   22   86 1    
    46   23   24 2    
    47   23   25 1    
    48   25   26 1    
    49   25   27 1    
    50   25   87 1    
    51   26   88 1    
    52   26   89 1    
    53   26   90 1    
    54   27   28 am   BACKBONE|DICT|INTERRES
    55   27   91 1    
    56   28   29 2    
    57   28   30 1    
    58   30   31 1    
    59   30   32 1    
    60   30   92 1    
    61   31   93 1    
    62   31   94 1    
    63   31   95 1    
    64   32   33 am   BACKBONE|DICT|INTERRES
    65   32   96 1    
    66   33   34 2    
    67   33   35 1    
    68   35   36 1    
    69   35   37 1    
    70   35   97 1    
    71   36   98 1    
    72   36   99 1    
    73   36  100 1    
    74   37   38 am   BACKBONE|DICT|INTERRES
    75   37  101 1    
    76   38   39 2    
    77   38   40 1    
    78   40   41 1    
    79   40   42 1    
    80   40  102 1    
    81   41  103 1    
    82   41  104 1    
    83   41  105 1    
    84   42   43 am   BACKBONE|DICT|INTERRES
    85   42  106 1    
    86   43   44 2    
    87   43   45 1    
    88   45   46 1    
    89   45   49 1    
    90   45  107 1    
    91   46   47 1    
    92   46  108 1    
    93   46  109 1    
    94   47   48 1    
    95   48  110 1    
    96   48  111 1    
    97   49   50 am   BACKBONE|DICT|INTERRES
    98   49  112 1    
    99   50   51 2    
   100   50   52 1    
   101   52   53 1    
   102   52   54 1    
   103   52  113 1    
   104   53  114 1    
   105   53  115 1    
   106   53  116 1    
   107   54   55 am   BACKBONE|DICT|INTERRES
   108   54  117 1    
   109   55   56 2    
   110   55   57 1    
   111   57   58 1    
   112   57   59 1    
   113   57  118 1    
   114   58  119 1    
   115   58  120 1    
   116   58  121 1    
   117   59   60 am   BACKBONE|DICT|INTERRES
   118   59  122 1    
   119   60   61 2    
   120   60   62 1    
   121   62   63 1    
   122   62   64 1    
   123   62  123 1    
   124   63  124 1    
   125   63  125 1    
   126   63  126 1    
   127   64   65 am   BACKBONE|DICT|INTERRES
   128   64  127 1    
   129   65   66 2    
@<TRIPOS>SUBSTRUCTURE
     1 UNK         1 GROUP             0       ****    0 ROOT    
