@<TRIPOS>MOLECULE
3R134
127   129    1
SMALL
USER_CHARGES


@<TRIPOS>ATOM
      1 CA         37.3369  -48.5630  -54.8731 C.3       0 UNK        -0.1968 
      2 C          35.9806  -47.9710  -54.5238 C.2       0 UNK         0.4852 
      3 O          34.9779  -48.6849  -54.5651 O.2       0 UNK        -0.5359 
      4 N          35.9448  -46.6790  -54.1659 N.am      1 UNK        -0.4300 
      5 CA         34.7455  -45.8920  -53.8373 C.3       1 UNK         0.0863 
      6 C6         35.1126  -44.4423  -53.4421 C.3       11 UNK        -0.0953 
      7 S7         35.6729  -43.4971  -54.8976 S.3       11 UNK        -0.2369 
      8 C8         34.4340  -42.1632  -54.9962 C.3       11 UNK         0.0226 
      9 C9         33.0077  -42.6793  -55.1505 C.ar      11 UNK        -0.0699 
     10 C10        32.1072  -42.5787  -54.0858 C.ar      11 UNK        -0.0804 
     11 C11        30.7874  -43.0167  -54.2199 C.ar      11 UNK        -0.0871 
     12 C12        30.3763  -43.5531  -55.4445 C.ar      11 UNK        -0.1008 
     13 C13        31.2586  -43.6634  -56.5265 C.ar      11 UNK        -0.0735 
     14 C14        32.5767  -43.2228  -56.3643 C.ar      11 UNK        -0.0945 
     15 C15        30.8424  -44.2224  -57.8919 C.3       11 UNK         0.0169 
     16 S16        29.1696  -44.9578  -58.0108 S.3       11 UNK        -0.2669 
     17 C17        28.0904  -43.4824  -57.9646 C.3       11 UNK        -0.0850 
     18 CA         26.8550  -43.6785  -57.0339 C.3       10 UNK         0.0855 
     19 C          26.1144  -42.3428  -56.7137 C.2       10 UNK         0.5543 
     20 N          24.8116  -42.3584  -56.4586 N.am      10 UNK        -0.7343 
     21 O          26.7285  -41.2800  -56.6630 O.2       10 UNK        -0.5027 
     22 N          25.9807  -44.7820  -57.4730 N.am      10 UNK        -0.4495 
     23 C          25.2438  -44.8209  -58.5896 C.2       10 UNK         0.4903 
     24 O          25.2098  -43.9176  -59.4270 O.2       10 UNK        -0.4860 
     25 CA         24.4152  -46.1021  -58.8042 C.3       9 UNK         0.0227 
     26 CB         23.3713  -45.9495  -59.9268 C.3       9 UNK        -0.1964 
     27 N          25.2737  -47.2491  -59.1058 N.am      9 UNK        -0.4231 
     28 C          26.0091  -47.9225  -58.2123 C.2       9 UNK         0.5014 
     29 O          26.0175  -47.6679  -57.0049 O.2       9 UNK        -0.5270 
     30 CA         26.8748  -49.0555  -58.7797 C.3       8 UNK         0.0284 
     31 CB         28.0481  -48.4920  -59.6019 C.3       8 UNK        -0.1977 
     32 N          27.4164  -49.8645  -57.6902 N.am      8 UNK        -0.4342 
     33 C          27.2324  -51.1796  -57.5345 C.2       8 UNK         0.5039 
     34 O          26.5789  -51.8778  -58.3120 O.2       8 UNK        -0.5547 
     35 CA         27.9006  -51.8490  -56.3218 C.3       7 UNK         0.0281 
     36 CB         29.3235  -52.3073  -56.6806 C.3       7 UNK        -0.1963 
     37 N          27.9526  -51.0064  -55.1254 N.am      7 UNK        -0.4444 
     38 C          26.8929  -50.6872  -54.3688 C.2       7 UNK         0.5104 
     39 O          25.7381  -51.0289  -54.6262 O.2       7 UNK        -0.5100 
     40 CA         27.1692  -49.8753  -53.0932 C.3       6 UNK         0.0396 
     41 CB         27.6840  -50.7906  -51.9702 C.3       6 UNK        -0.1801 
     42 N          28.1444  -48.8137  -53.3389 N.am      6 UNK        -0.4747 
     43 C          27.8274  -47.5476  -53.6489 C.2       6 UNK         0.5012 
     44 O          26.6735  -47.1172  -53.6543 O.2       6 UNK        -0.5003 
     45 CA         28.9893  -46.5923  -54.0074 C.3       5 UNK         0.0782 
     46 C46        29.3166  -45.6324  -52.8307 C.3       11 UNK        -0.0868 
     47 S47        28.4370  -44.0420  -52.9757 S.3       11 UNK        -0.2515 
     48 C48        29.8274  -42.8537  -53.0380 C.3       11 UNK         0.0199 
     49 N          30.1889  -47.2836  -54.4967 N.am      5 UNK        -0.4607 
     50 C          30.2336  -47.9909  -55.6347 C.2       4 UNK         0.5031 
     51 O          29.2665  -48.1610  -56.3723 O.2       4 UNK        -0.5119 
     52 CA         31.5574  -48.6817  -55.9881 C.3       4 UNK         0.0263 
     53 CB         32.4896  -47.7029  -56.7169 C.3       4 UNK        -0.1967 
     54 N          32.2459  -49.2813  -54.8406 N.am      4 UNK        -0.4237 
     55 C          31.7205  -50.2005  -54.0149 C.2       3 UNK         0.4908 
     56 O          30.5519  -50.5843  -54.0698 O.2       3 UNK        -0.5102 
     57 CA         32.6464  -50.7799  -52.9384 C.3       3 UNK         0.0241 
     58 CB         33.6340  -51.7867  -53.5510 C.3       3 UNK        -0.1971 
     59 N          33.3809  -49.7119  -52.2638 N.am      3 UNK        -0.4139 
     60 C          32.9624  -49.0959  -51.1497 C.2       2 UNK         0.5016 
     61 O          31.9689  -49.4378  -50.5072 O.2       2 UNK        -0.5319 
     62 CA         33.7782  -47.8800  -50.6697 C.3       2 UNK         0.0286 
     63 CB         34.8082  -48.3074  -49.6118 C.3       2 UNK        -0.1963 
     64 N          34.4645  -47.1572  -51.7459 N.am      2 UNK        -0.4790 
     65 C          33.8482  -46.5395  -52.7647 C.2       1 UNK         0.5024 
     66 O          32.6261  -46.5115  -52.9064 O.2       1 UNK        -0.4888 
     67 H67        37.3277  -48.9371  -55.8964 H         1 UNK         0.0892 
     68 H68        38.1381  -47.8294  -54.7864 H         1 UNK         0.0892 
     69 H69        37.5640  -49.3955  -54.2079 H         1 UNK         0.0892 
     70 H70        36.8076  -46.1537  -54.1624 H         1 UNK         0.3107 
     71 H71        34.1426  -45.8474  -54.7444 H         1 UNK         0.0773 
     72 H72        35.9035  -44.4333  -52.6900 H         1 UNK         0.0680 
     73 H73        34.2666  -43.9285  -52.9842 H         1 UNK         0.0680 
     74 H74        34.5231  -41.5344  -54.1089 H         1 UNK         0.0650 
     75 H75        34.6766  -41.5233  -55.8456 H         1 UNK         0.0650 
     76 H76        32.4335  -42.1470  -53.1494 H         1 UNK         0.1397 
     77 H77        29.3569  -43.8764  -55.5493 H         1 UNK         0.1363 
     78 H78        33.2719  -43.2933  -57.1900 H         1 UNK         0.1355 
     79 H79        31.5588  -44.9927  -58.1792 H         1 UNK         0.0707 
     80 H80        30.9293  -43.4323  -58.6391 H         1 UNK         0.0707 
     81 H81        27.7752  -43.2433  -58.9811 H         1 UNK         0.1034 
     82 H82        28.6878  -42.6308  -57.6350 H         1 UNK         0.1034 
     83 H83        27.2245  -44.0014  -56.0616 H         1 UNK         0.0482 
     84 H84        24.3394  -41.4948  -56.2421 H         1 UNK         0.3460 
     85 H85        24.2978  -43.2243  -56.4826 H         1 UNK         0.3460 
     86 H86        25.9882  -45.6155  -56.8934 H         1 UNK         0.2989 
     87 H87        23.8738  -46.3030  -57.8771 H         1 UNK         0.0559 
     88 H88        23.8387  -45.7697  -60.8958 H         1 UNK         0.0848 
     89 H89        22.7043  -45.1097  -59.7268 H         1 UNK         0.0848 
     90 H90        22.7489  -46.8402  -60.0144 H         1 UNK         0.0848 
     91 H91        25.3495  -47.5047  -60.0800 H         1 UNK         0.3144 
     92 H92        26.2434  -49.6613  -59.4327 H         1 UNK         0.0727 
     93 H93        28.6840  -47.8411  -59.0008 H         1 UNK         0.0790 
     94 H94        27.6966  -47.9074  -60.4525 H         1 UNK         0.0790 
     95 H95        28.6729  -49.2929  -59.9975 H         1 UNK         0.0790 
     96 H96        27.9442  -49.3391  -56.9939 H         1 UNK         0.3215 
     97 H97        27.3138  -52.7369  -56.0761 H         1 UNK         0.0863 
     98 H98        29.9671  -51.4630  -56.9280 H         1 UNK         0.0808 
     99 H99        29.3133  -52.9742  -57.5438 H         1 UNK         0.0808 
    100 H100       29.7862  -52.8504  -55.8562 H         1 UNK         0.0808 
    101 H101       28.8786  -50.7280  -54.8069 H         1 UNK         0.3118 
    102 H102       26.2235  -49.4429  -52.7594 H         1 UNK         0.0546 
    103 H103       27.8328  -50.2349  -51.0444 H         1 UNK         0.0828 
    104 H104       28.6313  -51.2644  -52.2304 H         1 UNK         0.0828 
    105 H105       26.9690  -51.5868  -51.7587 H         1 UNK         0.0828 
    106 H106       29.1159  -49.0954  -53.3947 H         1 UNK         0.3005 
    107 H107       28.6301  -46.0056  -54.8559 H         1 UNK         0.1257 
    108 H108       30.3822  -45.4124  -52.8003 H         1 UNK         0.0775 
    109 H109       29.0943  -46.0789  -51.8593 H         1 UNK         0.0775 
    110 H110       29.4143  -41.8448  -53.0703 H         1 UNK         0.0840 
    111 H111       30.3784  -42.9293  -52.0991 H         1 UNK         0.0840 
    112 H112       31.0353  -47.1758  -53.9456 H         1 UNK         0.2987 
    113 H113       31.3284  -49.4971  -56.6762 H         1 UNK         0.0785 
    114 H114       33.4518  -48.1589  -56.9504 H         1 UNK         0.0798 
    115 H115       32.0449  -47.3812  -57.6594 H         1 UNK         0.0798 
    116 H116       32.6710  -46.8064  -56.1260 H         1 UNK         0.0798 
    117 H117       33.2287  -49.0352  -54.7267 H         1 UNK         0.3079 
    118 H118       32.0266  -51.3177  -52.2176 H         1 UNK         0.0794 
    119 H119       34.2592  -52.2422  -52.7829 H         1 UNK         0.0786 
    120 H120       34.2932  -51.3207  -54.2844 H         1 UNK         0.0786 
    121 H121       33.1023  -52.5940  -54.0567 H         1 UNK         0.0786 
    122 H122       34.1755  -49.3268  -52.7622 H         1 UNK         0.3032 
    123 H123       33.0735  -47.1871  -50.2040 H         1 UNK         0.1094 
    124 H124       34.3239  -48.8268  -48.7834 H         1 UNK         0.0794 
    125 H125       35.5571  -48.9833  -50.0266 H         1 UNK         0.0794 
    126 H126       35.3273  -47.4459  -49.1911 H         1 UNK         0.0794 
    127 H127       35.4741  -47.1454  -51.7189 H         1 UNK         0.3016 
@<TRIPOS>BOND
     1    1    2 1    
     2    1   67 1    
     3    1   68 1    
     4    1   69 1    
     5    2    3 2    
     6    2    4 am   BACKBONE|DICT|INTERRES
     7    4    5 1    
     8    4   70 1    
     9    5    6 1    
    10    5   65 1    
    11    5   71 1    
    12    6    7 1    
    13    6   72 1    
    14    6   73 1    
    15    7    8 1    
    16    8    9 1    
    17    8   74 1    
    18    8   75 1    
    19    9   10 ar   
    20    9   14 ar   
    21   10   11 ar   
    22   10   76 1    
    23   11   12 ar   
    24   11   48 1    
    25   12   13 ar   
    26   12   77 1    
    27   13   14 ar   
    28   13   15 1    
    29   14   78 1    
    30   15   16 1    
    31   15   79 1    
    32   15   80 1    
    33   16   17 1    
    34   17   18 1    
    35   17   81 1    
    36   17   82 1    
    37   18   19 1    
    38   18   22 1    
    39   18   83 1    
    40   19   20 am   BACKBONE|DICT|INTERRES
    41   19   21 2    
    42   20   84 1    
    43   20   85 1    
    44   22   23 am   BACKBONE|DICT|INTERRES
    45   22   86 1    
    46   23   24 2    
    47   23   25 1    
    48   25   26 1    
    49   25   27 1    
    50   25   87 1    
    51   26   88 1    
    52   26   89 1    
    53   26   90 1    
    54   27   28 am   BACKBONE|DICT|INTERRES
    55   27   91 1    
    56   28   29 2    
    57   28   30 1    
    58   30   31 1    
    59   30   32 1    
    60   30   92 1    
    61   31   93 1    
    62   31   94 1    
    63   31   95 1    
    64   32   33 am   BACKBONE|DICT|INTERRES
    65   32   96 1    
    66   33   34 2    
    67   33   35 1    
    68   35   36 1    
    69   35   37 1    
    70   35   97 1    
    71   36   98 1    
    72   36   99 1    
    73   36  100 1    
    74   37   38 am   BACKBONE|DICT|INTERRES
    75   37  101 1    
    76   38   39 2    
    77   38   40 1    
    78   40   41 1    
    79   40   42 1    
    80   40  102 1    
    81   41  103 1    
    82   41  104 1    
    83   41  105 1    
    84   42   43 am   BACKBONE|DICT|INTERRES
    85   42  106 1    
    86   43   44 2    
    87   43   45 1    
    88   45   46 1    
    89   45   49 1    
    90   45  107 1    
    91   46   47 1    
    92   46  108 1    
    93   46  109 1    
    94   47   48 1    
    95   48  110 1    
    96   48  111 1    
    97   49   50 am   BACKBONE|DICT|INTERRES
    98   49  112 1    
    99   50   51 2    
   100   50   52 1    
   101   52   53 1    
   102   52   54 1    
   103   52  113 1    
   104   53  114 1    
   105   53  115 1    
   106   53  116 1    
   107   54   55 am   BACKBONE|DICT|INTERRES
   108   54  117 1    
   109   55   56 2    
   110   55   57 1    
   111   57   58 1    
   112   57   59 1    
   113   57  118 1    
   114   58  119 1    
   115   58  120 1    
   116   58  121 1    
   117   59   60 am   BACKBONE|DICT|INTERRES
   118   59  122 1    
   119   60   61 2    
   120   60   62 1    
   121   62   63 1    
   122   62   64 1    
   123   62  123 1    
   124   63  124 1    
   125   63  125 1    
   126   63  126 1    
   127   64   65 am   BACKBONE|DICT|INTERRES
   128   64  127 1    
   129   65   66 2    
@<TRIPOS>SUBSTRUCTURE
     1 UNK         1 GROUP             0       ****    0 ROOT    
