@<TRIPOS>MOLECULE
3R134
127   129    1
SMALL
USER_CHARGES


@<TRIPOS>ATOM
      1 CA         32.8042  -42.9546  -57.5266 C.3       0 UNK        -0.1968 
      2 C          32.9224  -43.7170  -56.2161 C.2       0 UNK         0.4852 
      3 O          32.2694  -44.7458  -56.0396 O.2       0 UNK        -0.5359 
      4 N          33.7615  -43.2148  -55.3023 N.am      1 UNK        -0.4300 
      5 CA         34.1133  -43.8606  -54.0383 C.3       1 UNK         0.0863 
      6 C6         34.6617  -42.8188  -53.0290 C.3       11 UNK        -0.0953 
      7 S7         34.4664  -43.3497  -51.2982 S.3       11 UNK        -0.2369 
      8 C8         32.9848  -42.4105  -50.8003 C.3       11 UNK         0.0226 
      9 C9         31.7286  -42.9282  -51.4869 C.ar      11 UNK        -0.0699 
     10 C10        31.2293  -44.1876  -51.1506 C.ar      11 UNK        -0.0804 
     11 C11        30.0917  -44.6890  -51.7841 C.ar      11 UNK        -0.0871 
     12 C12        29.4282  -43.9084  -52.7318 C.ar      11 UNK        -0.1008 
     13 C13        29.9142  -42.6434  -53.0866 C.ar      11 UNK        -0.0735 
     14 C14        31.0688  -42.1628  -52.4555 C.ar      11 UNK        -0.0945 
     15 C15        29.2165  -41.7559  -54.1212 C.3       11 UNK         0.0169 
     16 S16        27.9354  -42.5743  -55.1409 S.3       11 UNK        -0.2669 
     17 C17        28.9526  -43.5327  -56.3151 C.3       11 UNK        -0.0850 
     18 CA         28.1361  -43.9309  -57.5744 C.3       10 UNK         0.0855 
     19 C          29.0423  -44.3040  -58.7859 C.2       10 UNK         0.5543 
     20 N          28.7849  -45.3811  -59.5183 N.am      10 UNK        -0.7343 
     21 O          29.9844  -43.5802  -59.0944 O.2       10 UNK        -0.5027 
     22 N          27.1219  -44.9509  -57.2578 N.am      10 UNK        -0.4495 
     23 C          25.9052  -45.0115  -57.8111 C.2       10 UNK         0.4903 
     24 O          25.4545  -44.1596  -58.5794 O.2       10 UNK        -0.4860 
     25 CA         25.0732  -46.2616  -57.4658 C.3       9 UNK         0.0227 
     26 CB         23.7331  -46.3264  -58.2279 C.3       9 UNK        -0.1964 
     27 N          25.8285  -47.5066  -57.6511 N.am      9 UNK        -0.4231 
     28 C          26.4357  -47.9443  -58.7659 C.2       9 UNK         0.5014 
     29 O          26.4424  -47.3253  -59.8302 O.2       9 UNK        -0.5270 
     30 CA         27.2043  -49.2781  -58.6865 C.3       8 UNK         0.0284 
     31 CB         28.7196  -49.0223  -58.7461 C.3       8 UNK        -0.1977 
     32 N          26.9053  -50.0597  -57.4852 N.am      8 UNK        -0.4342 
     33 C          25.7528  -50.6998  -57.2455 C.2       8 UNK         0.5039 
     34 O          24.8290  -50.7816  -58.0553 O.2       8 UNK        -0.5547 
     35 CA         25.5901  -51.3073  -55.8434 C.3       7 UNK         0.0281 
     36 CB         26.2298  -52.7029  -55.7722 C.3       7 UNK        -0.1963 
     37 N          26.1643  -50.4433  -54.8073 N.am      7 UNK        -0.4444 
     38 C          25.6249  -49.2841  -54.4030 C.2       7 UNK         0.5104 
     39 O          24.5603  -48.8378  -54.8289 O.2       7 UNK        -0.5100 
     40 CA         26.4262  -48.4661  -53.3781 C.3       6 UNK         0.0396 
     41 CB         26.1378  -48.9500  -51.9487 C.3       6 UNK        -0.1801 
     42 N          27.8669  -48.5134  -53.6291 N.am      6 UNK        -0.4747 
     43 C          28.4857  -47.8783  -54.6348 C.2       6 UNK         0.5012 
     44 O          27.9083  -47.1648  -55.4571 O.2       6 UNK        -0.5003 
     45 CA         30.0096  -48.0832  -54.7471 C.3       5 UNK         0.0782 
     46 C46        30.7688  -47.0234  -53.9153 C.3       11 UNK        -0.0868 
     47 S47        30.7610  -47.3462  -52.1085 S.3       11 UNK        -0.2515 
     48 C48        29.6019  -46.0932  -51.4764 C.3       11 UNK         0.0199 
     49 N          30.4691  -49.4425  -54.4323 N.am      5 UNK        -0.4607 
     50 C          30.0475  -50.5805  -54.9992 C.2       4 UNK         0.5031 
     51 O          29.1404  -50.6247  -55.8311 O.2       4 UNK        -0.5119 
     52 CA         30.7253  -51.8883  -54.5350 C.3       4 UNK         0.0263 
     53 CB         30.6603  -52.9985  -55.6061 C.3       4 UNK        -0.1967 
     54 N          32.1024  -51.7098  -54.0463 N.am      4 UNK        -0.4237 
     55 C          33.1572  -51.2681  -54.7480 C.2       3 UNK         0.4908 
     56 O          33.1243  -50.9720  -55.9447 O.2       3 UNK        -0.5102 
     57 CA         34.4848  -51.1402  -53.9785 C.3       3 UNK         0.0241 
     58 CB         35.4131  -52.3237  -54.2972 C.3       3 UNK        -0.1971 
     59 N          35.1628  -49.8851  -54.3126 N.am      3 UNK        -0.4139 
     60 C          34.6925  -48.6753  -53.9823 C.2       2 UNK         0.5016 
     61 O          33.7219  -48.5079  -53.2406 O.2       2 UNK        -0.5319 
     62 CA         35.4027  -47.4576  -54.5934 C.3       2 UNK         0.0286 
     63 CB         35.4607  -47.5579  -56.1349 C.3       2 UNK        -0.1963 
     64 N          34.6801  -46.2469  -54.2017 N.am      2 UNK        -0.4790 
     65 C          35.1186  -44.9916  -54.3379 C.2       1 UNK         0.5024 
     66 O          36.2497  -44.7048  -54.7378 O.2       1 UNK        -0.4888 
     67 H67        32.6978  -43.6499  -58.3590 H         1 UNK         0.0892 
     68 H68        31.9300  -42.3055  -57.5113 H         1 UNK         0.0892 
     69 H69        33.6832  -42.3388  -57.7158 H         1 UNK         0.0892 
     70 H70        34.2903  -42.3837  -55.5246 H         1 UNK         0.3107 
     71 H71        33.2001  -44.2963  -53.6250 H         1 UNK         0.0773 
     72 H72        35.7131  -42.5896  -53.2127 H         1 UNK         0.0680 
     73 H73        34.1368  -41.8696  -53.1478 H         1 UNK         0.0680 
     74 H74        33.1368  -41.3496  -51.0046 H         1 UNK         0.0650 
     75 H75        32.8616  -42.4982  -49.7199 H         1 UNK         0.0650 
     76 H76        31.7463  -44.7927  -50.4180 H         1 UNK         0.1397 
     77 H77        28.5419  -44.3092  -53.2017 H         1 UNK         0.1363 
     78 H78        31.4538  -41.1868  -52.7183 H         1 UNK         0.1355 
     79 H79        28.7423  -40.9302  -53.5891 H         1 UNK         0.0707 
     80 H80        29.9604  -41.3069  -54.7811 H         1 UNK         0.0707 
     81 H81        29.8082  -42.9144  -56.5874 H         1 UNK         0.1034 
     82 H82        29.3619  -44.4142  -55.8186 H         1 UNK         0.1034 
     83 H83        27.6197  -43.0282  -57.9066 H         1 UNK         0.0482 
     84 H84        27.9586  -45.9411  -59.3552 H         1 UNK         0.3460 
     85 H85        29.3801  -45.5855  -60.3045 H         1 UNK         0.3460 
     86 H86        27.4177  -45.7068  -56.6456 H         1 UNK         0.2989 
     87 H87        24.8465  -46.1969  -56.4005 H         1 UNK         0.0559 
     88 H88        23.8826  -46.3702  -59.3073 H         1 UNK         0.0848 
     89 H89        23.1216  -45.4478  -58.0191 H         1 UNK         0.0848 
     90 H90        23.1534  -47.2015  -57.9341 H         1 UNK         0.0848 
     91 H91        25.9331  -48.0718  -56.8197 H         1 UNK         0.3144 
     92 H92        26.9205  -49.8719  -59.5577 H         1 UNK         0.0727 
     93 H93        29.0548  -48.4017  -57.9147 H         1 UNK         0.0790 
     94 H94        28.9946  -48.5082  -59.6680 H         1 UNK         0.0790 
     95 H95        29.2828  -49.9554  -58.7158 H         1 UNK         0.0790 
     96 H96        27.6488  -50.1280  -56.7912 H         1 UNK         0.3215 
     97 H97        24.5205  -51.4129  -55.6475 H         1 UNK         0.0863 
     98 H98        26.0808  -53.1594  -54.7936 H         1 UNK         0.0808 
     99 H99        27.3012  -52.6681  -55.9681 H         1 UNK         0.0808 
    100 H100       25.7863  -53.3710  -56.5118 H         1 UNK         0.0808 
    101 H101       27.0694  -50.7048  -54.4441 H         1 UNK         0.3118 
    102 H102       26.1013  -47.4259  -53.4543 H         1 UNK         0.0546 
    103 H103       26.4552  -49.9822  -51.7961 H         1 UNK         0.0828 
    104 H104       25.0701  -48.9019  -51.7298 H         1 UNK         0.0828 
    105 H105       26.6460  -48.3296  -51.2102 H         1 UNK         0.0828 
    106 H106       28.4323  -49.0573  -52.9927 H         1 UNK         0.3005 
    107 H107       30.2576  -47.9129  -55.7968 H         1 UNK         0.1257 
    108 H108       30.3993  -46.0224  -54.1368 H         1 UNK         0.0775 
    109 H109       31.8091  -47.0043  -54.2382 H         1 UNK         0.0775 
    110 H110       28.6113  -46.2672  -51.8991 H         1 UNK         0.0840 
    111 H111       29.5004  -46.2139  -50.3970 H         1 UNK         0.0840 
    112 H112       31.2157  -49.4925  -53.7526 H         1 UNK         0.2987 
    113 H113       30.1446  -52.2310  -53.6775 H         1 UNK         0.0785 
    114 H114       29.6283  -53.2525  -55.8480 H         1 UNK         0.0798 
    115 H115       31.1430  -53.9128  -55.2610 H         1 UNK         0.0798 
    116 H116       31.1429  -52.6938  -56.5353 H         1 UNK         0.0798 
    117 H117       32.2420  -51.9216  -53.0672 H         1 UNK         0.3079 
    118 H118       34.2799  -51.1400  -52.9055 H         1 UNK         0.0794 
    119 H119       34.9408  -53.2714  -54.0348 H         1 UNK         0.0786 
    120 H120       36.3451  -52.2607  -53.7350 H         1 UNK         0.0786 
    121 H121       35.6624  -52.3673  -55.3584 H         1 UNK         0.0786 
    122 H122       35.9453  -49.9497  -54.9469 H         1 UNK         0.3032 
    123 H123       36.4146  -47.4160  -54.1846 H         1 UNK         0.1094 
    124 H124       34.4614  -47.6327  -56.5665 H         1 UNK         0.0794 
    125 H125       35.9485  -46.6905  -56.5792 H         1 UNK         0.0794 
    126 H126       36.0244  -48.4319  -56.4618 H         1 UNK         0.0794 
    127 H127       33.7623  -46.4285  -53.8121 H         1 UNK         0.3016 
@<TRIPOS>BOND
     1    1    2 1    
     2    1   67 1    
     3    1   68 1    
     4    1   69 1    
     5    2    3 2    
     6    2    4 am   BACKBONE|DICT|INTERRES
     7    4    5 1    
     8    4   70 1    
     9    5    6 1    
    10    5   65 1    
    11    5   71 1    
    12    6    7 1    
    13    6   72 1    
    14    6   73 1    
    15    7    8 1    
    16    8    9 1    
    17    8   74 1    
    18    8   75 1    
    19    9   10 ar   
    20    9   14 ar   
    21   10   11 ar   
    22   10   76 1    
    23   11   12 ar   
    24   11   48 1    
    25   12   13 ar   
    26   12   77 1    
    27   13   14 ar   
    28   13   15 1    
    29   14   78 1    
    30   15   16 1    
    31   15   79 1    
    32   15   80 1    
    33   16   17 1    
    34   17   18 1    
    35   17   81 1    
    36   17   82 1    
    37   18   19 1    
    38   18   22 1    
    39   18   83 1    
    40   19   20 am   BACKBONE|DICT|INTERRES
    41   19   21 2    
    42   20   84 1    
    43   20   85 1    
    44   22   23 am   BACKBONE|DICT|INTERRES
    45   22   86 1    
    46   23   24 2    
    47   23   25 1    
    48   25   26 1    
    49   25   27 1    
    50   25   87 1    
    51   26   88 1    
    52   26   89 1    
    53   26   90 1    
    54   27   28 am   BACKBONE|DICT|INTERRES
    55   27   91 1    
    56   28   29 2    
    57   28   30 1    
    58   30   31 1    
    59   30   32 1    
    60   30   92 1    
    61   31   93 1    
    62   31   94 1    
    63   31   95 1    
    64   32   33 am   BACKBONE|DICT|INTERRES
    65   32   96 1    
    66   33   34 2    
    67   33   35 1    
    68   35   36 1    
    69   35   37 1    
    70   35   97 1    
    71   36   98 1    
    72   36   99 1    
    73   36  100 1    
    74   37   38 am   BACKBONE|DICT|INTERRES
    75   37  101 1    
    76   38   39 2    
    77   38   40 1    
    78   40   41 1    
    79   40   42 1    
    80   40  102 1    
    81   41  103 1    
    82   41  104 1    
    83   41  105 1    
    84   42   43 am   BACKBONE|DICT|INTERRES
    85   42  106 1    
    86   43   44 2    
    87   43   45 1    
    88   45   46 1    
    89   45   49 1    
    90   45  107 1    
    91   46   47 1    
    92   46  108 1    
    93   46  109 1    
    94   47   48 1    
    95   48  110 1    
    96   48  111 1    
    97   49   50 am   BACKBONE|DICT|INTERRES
    98   49  112 1    
    99   50   51 2    
   100   50   52 1    
   101   52   53 1    
   102   52   54 1    
   103   52  113 1    
   104   53  114 1    
   105   53  115 1    
   106   53  116 1    
   107   54   55 am   BACKBONE|DICT|INTERRES
   108   54  117 1    
   109   55   56 2    
   110   55   57 1    
   111   57   58 1    
   112   57   59 1    
   113   57  118 1    
   114   58  119 1    
   115   58  120 1    
   116   58  121 1    
   117   59   60 am   BACKBONE|DICT|INTERRES
   118   59  122 1    
   119   60   61 2    
   120   60   62 1    
   121   62   63 1    
   122   62   64 1    
   123   62  123 1    
   124   63  124 1    
   125   63  125 1    
   126   63  126 1    
   127   64   65 am   BACKBONE|DICT|INTERRES
   128   64  127 1    
   129   65   66 2    
@<TRIPOS>SUBSTRUCTURE
     1 UNK         1 GROUP             0       ****    0 ROOT    
