@<TRIPOS>MOLECULE
3R134
127   129    1
SMALL
USER_CHARGES


@<TRIPOS>ATOM
      1 CA         34.3756  -47.5419  -59.0390 C.3       0 UNK        -0.1968 
      2 C          34.6164  -46.9890  -57.6421 C.2       0 UNK         0.4852 
      3 O          35.7580  -46.6810  -57.2984 O.2       0 UNK        -0.5359 
      4 N          33.5472  -46.8862  -56.8402 N.am      1 UNK        -0.4300 
      5 CA         33.5047  -46.4231  -55.4432 C.3       1 UNK         0.0863 
      6 C6         34.1315  -45.0197  -55.1983 C.3       11 UNK        -0.0953 
      7 S7         33.5232  -43.7320  -56.3406 S.3       11 UNK        -0.2369 
      8 C8         33.1804  -42.3476  -55.2104 C.3       11 UNK         0.0226 
      9 C9         31.8025  -42.4624  -54.5779 C.ar      11 UNK        -0.0699 
     10 C10        31.6566  -42.8319  -53.2370 C.ar      11 UNK        -0.0804 
     11 C11        30.3840  -42.9175  -52.6616 C.ar      11 UNK        -0.0871 
     12 C12        29.2559  -42.6225  -53.4350 C.ar      11 UNK        -0.1008 
     13 C13        29.3917  -42.2560  -54.7761 C.ar      11 UNK        -0.0735 
     14 C14        30.6670  -42.1747  -55.3401 C.ar      11 UNK        -0.0945 
     15 C15        28.1686  -41.9364  -55.6208 C.3       11 UNK         0.0169 
     16 S16        27.6530  -43.3697  -56.6133 S.3       11 UNK        -0.2669 
     17 C17        26.6235  -44.2860  -55.4128 C.3       11 UNK        -0.0850 
     18 CA         26.1246  -45.6682  -55.9345 C.3       10 UNK         0.0855 
     19 C          25.2368  -46.4213  -54.8996 C.2       10 UNK         0.5543 
     20 N          24.3567  -47.3179  -55.3296 N.am      10 UNK        -0.7343 
     21 O          25.3452  -46.2025  -53.6954 O.2       10 UNK        -0.5027 
     22 N          25.5530  -45.6206  -57.2926 N.am      10 UNK        -0.4495 
     23 C          24.5203  -44.8678  -57.6981 C.2       10 UNK         0.4903 
     24 O          23.8430  -44.1708  -56.9417 O.2       10 UNK        -0.4860 
     25 CA         24.1993  -44.8530  -59.2058 C.3       9 UNK         0.0227 
     26 CB         24.3282  -43.4252  -59.7660 C.3       9 UNK        -0.1964 
     27 N          25.0841  -45.7348  -59.9741 N.am      9 UNK        -0.4231 
     28 C          24.7409  -46.9315  -60.4670 C.2       9 UNK         0.5014 
     29 O          23.6058  -47.4056  -60.4035 O.2       9 UNK        -0.5270 
     30 CA         25.8647  -47.7550  -61.1259 C.3       8 UNK         0.0284 
     31 CB         25.9739  -47.4140  -62.6213 C.3       8 UNK        -0.1977 
     32 N          27.1852  -47.6133  -60.4933 N.am      8 UNK        -0.4342 
     33 C          27.4556  -47.8922  -59.2111 C.2       8 UNK         0.5039 
     34 O          26.5977  -48.2154  -58.3838 O.2       8 UNK        -0.5547 
     35 CA         28.9150  -47.7635  -58.7596 C.3       7 UNK         0.0281 
     36 CB         29.3050  -46.2855  -58.5605 C.3       7 UNK        -0.1963 
     37 N          29.0352  -48.5045  -57.5085 N.am      7 UNK        -0.4444 
     38 C          30.1558  -48.8038  -56.8514 C.2       7 UNK         0.5104 
     39 O          31.2824  -48.4591  -57.2134 O.2       7 UNK        -0.5100 
     40 CA         29.9902  -49.6441  -55.5741 C.3       6 UNK         0.0396 
     41 CB         30.7444  -50.9774  -55.7010 C.3       6 UNK        -0.1801 
     42 N          30.4652  -48.9245  -54.3915 N.am      6 UNK        -0.4747 
     43 C          29.8837  -47.8246  -53.8869 C.2       6 UNK         0.5012 
     44 O          28.8519  -47.3368  -54.3502 O.2       6 UNK        -0.5003 
     45 CA         30.5695  -47.1709  -52.6656 C.3       5 UNK         0.0782 
     46 C46        29.7448  -46.0112  -52.0407 C.3       11 UNK        -0.0868 
     47 S47        30.7629  -45.0364  -50.8787 S.3       11 UNK        -0.2515 
     48 C48        30.2187  -43.3267  -51.2035 C.3       11 UNK         0.0199 
     49 N          31.0044  -48.1685  -51.6781 N.am      5 UNK        -0.4607 
     50 C          30.2074  -48.9561  -50.9416 C.2       4 UNK         0.5031 
     51 O          28.9786  -48.9680  -51.0251 O.2       4 UNK        -0.5119 
     52 CA         30.9173  -49.9065  -49.9675 C.3       4 UNK         0.0263 
     53 CB         29.9547  -50.8663  -49.2372 C.3       4 UNK        -0.1967 
     54 N          31.9243  -50.6634  -50.7018 N.am      4 UNK        -0.4237 
     55 C          33.0202  -51.2293  -50.1934 C.2       3 UNK         0.4908 
     56 O          33.3371  -51.1746  -49.0046 O.2       3 UNK        -0.5102 
     57 CA         33.9120  -51.9993  -51.1825 C.3       3 UNK         0.0241 
     58 CB         33.1575  -53.1858  -51.8186 C.3       3 UNK        -0.1971 
     59 N          34.5487  -51.1645  -52.2115 N.am      3 UNK        -0.4139 
     60 C          33.9739  -50.4310  -53.1760 C.2       2 UNK         0.5016 
     61 O          32.7559  -50.2874  -53.3149 O.2       2 UNK        -0.5319 
     62 CA         34.9396  -49.7957  -54.1884 C.3       2 UNK         0.0286 
     63 CB         35.4228  -50.8528  -55.1958 C.3       2 UNK        -0.1963 
     64 N          34.3367  -48.6940  -54.9380 N.am      2 UNK        -0.4790 
     65 C          34.0593  -47.4763  -54.4528 C.2       1 UNK         0.5024 
     66 O          34.2214  -47.1721  -53.2700 O.2       1 UNK        -0.4888 
     67 H67        33.3283  -47.7992  -59.1998 H         1 UNK         0.0892 
     68 H68        34.6622  -46.8045  -59.7882 H         1 UNK         0.0892 
     69 H69        34.9728  -48.4396  -59.1965 H         1 UNK         0.0892 
     70 H70        32.6596  -47.2652  -57.1702 H         1 UNK         0.3107 
     71 H71        32.4419  -46.3397  -55.2150 H         1 UNK         0.0773 
     72 H72        35.2182  -45.0597  -55.2862 H         1 UNK         0.0680 
     73 H73        33.9283  -44.7001  -54.1749 H         1 UNK         0.0680 
     74 H74        33.2348  -41.4166  -55.7764 H         1 UNK         0.0650 
     75 H75        33.9608  -42.2847  -54.4503 H         1 UNK         0.0650 
     76 H76        32.5298  -43.0572  -52.6400 H         1 UNK         0.1397 
     77 H77        28.2695  -42.6845  -52.9958 H         1 UNK         0.1363 
     78 H78        30.7768  -41.8920  -56.3784 H         1 UNK         0.1355 
     79 H79        28.3983  -41.1095  -56.2945 H         1 UNK         0.0707 
     80 H80        27.3408  -41.5969  -54.9963 H         1 UNK         0.0707 
     81 H81        27.2098  -44.4314  -54.5040 H         1 UNK         0.1034 
     82 H82        25.7770  -43.6572  -55.1320 H         1 UNK         0.1034 
     83 H83        27.0092  -46.2970  -56.0345 H         1 UNK         0.0482 
     84 H84        23.7818  -47.8086  -54.6633 H         1 UNK         0.3460 
     85 H85        24.2759  -47.5160  -56.3145 H         1 UNK         0.3460 
     86 H86        25.9708  -46.2657  -57.9507 H         1 UNK         0.2989 
     87 H87        23.1596  -45.1671  -59.3164 H         1 UNK         0.0559 
     88 H88        23.6472  -42.7411  -59.2579 H         1 UNK         0.0848 
     89 H89        24.0836  -43.3916  -60.8278 H         1 UNK         0.0848 
     90 H90        25.3377  -43.0314  -59.6401 H         1 UNK         0.0848 
     91 H91        26.0399  -45.4284  -60.0884 H         1 UNK         0.3144 
     92 H92        25.5810  -48.8061  -61.0399 H         1 UNK         0.0727 
     93 H93        26.6802  -48.0712  -63.1290 H         1 UNK         0.0790 
     94 H94        26.2977  -46.3844  -62.7796 H         1 UNK         0.0790 
     95 H95        25.0107  -47.5324  -63.1200 H         1 UNK         0.0790 
     96 H96        27.9471  -47.3444  -61.1005 H         1 UNK         0.3215 
     97 H97        29.5604  -48.2251  -59.5096 H         1 UNK         0.0863 
     98 H98        29.1291  -45.6993  -59.4630 H         1 UNK         0.0808 
     99 H99        30.3608  -46.1774  -58.3129 H         1 UNK         0.0808 
    100 H100       28.7310  -45.8291  -57.7552 H         1 UNK         0.0808 
    101 H101       28.1379  -48.8170  -57.1528 H         1 UNK         0.3118 
    102 H102       28.9317  -49.8694  -55.4271 H         1 UNK         0.0546 
    103 H103       30.3803  -51.5529  -56.5528 H         1 UNK         0.0828 
    104 H104       30.6144  -51.5941  -54.8115 H         1 UNK         0.0828 
    105 H105       31.8146  -50.8232  -55.8455 H         1 UNK         0.0828 
    106 H106       31.3105  -49.2911  -53.9578 H         1 UNK         0.3005 
    107 H107       31.4812  -46.7253  -53.0621 H         1 UNK         0.1257 
    108 H108       28.8620  -46.3827  -51.5192 H         1 UNK         0.0775 
    109 H109       29.3680  -45.3532  -52.8233 H         1 UNK         0.0775 
    110 H110       29.1797  -43.2245  -50.8859 H         1 UNK         0.0840 
    111 H111       30.7964  -42.6475  -50.5751 H         1 UNK         0.0840 
    112 H112       32.0045  -48.2509  -51.5571 H         1 UNK         0.2987 
    113 H113       31.4147  -49.2813  -49.2229 H         1 UNK         0.0785 
    114 H114       29.4367  -51.5231  -49.9370 H         1 UNK         0.0798 
    115 H115       29.1961  -50.3127  -48.6825 H         1 UNK         0.0798 
    116 H116       30.4841  -51.4927  -48.5193 H         1 UNK         0.0798 
    117 H117       31.8266  -50.6820  -51.7151 H         1 UNK         0.3079 
    118 H118       34.7304  -52.4192  -50.5951 H         1 UNK         0.0794 
    119 H119       32.7179  -53.8249  -51.0515 H         1 UNK         0.0786 
    120 H120       33.8298  -53.8075  -52.4099 H         1 UNK         0.0786 
    121 H121       32.3478  -52.8601  -52.4724 H         1 UNK         0.0786 
    122 H122       35.5591  -51.1811  -52.1885 H         1 UNK         0.3032 
    123 H123       35.8007  -49.4026  -53.6428 H         1 UNK         0.1094 
    124 H124       36.1336  -50.4290  -55.9057 H         1 UNK         0.0794 
    125 H125       35.9271  -51.6794  -54.6934 H         1 UNK         0.0794 
    126 H126       34.5930  -51.2761  -55.7639 H         1 UNK         0.0794 
    127 H127       34.1240  -48.8699  -55.9086 H         1 UNK         0.3016 
@<TRIPOS>BOND
     1    1    2 1    
     2    1   67 1    
     3    1   68 1    
     4    1   69 1    
     5    2    3 2    
     6    2    4 am   BACKBONE|DICT|INTERRES
     7    4    5 1    
     8    4   70 1    
     9    5    6 1    
    10    5   65 1    
    11    5   71 1    
    12    6    7 1    
    13    6   72 1    
    14    6   73 1    
    15    7    8 1    
    16    8    9 1    
    17    8   74 1    
    18    8   75 1    
    19    9   10 ar   
    20    9   14 ar   
    21   10   11 ar   
    22   10   76 1    
    23   11   12 ar   
    24   11   48 1    
    25   12   13 ar   
    26   12   77 1    
    27   13   14 ar   
    28   13   15 1    
    29   14   78 1    
    30   15   16 1    
    31   15   79 1    
    32   15   80 1    
    33   16   17 1    
    34   17   18 1    
    35   17   81 1    
    36   17   82 1    
    37   18   19 1    
    38   18   22 1    
    39   18   83 1    
    40   19   20 am   BACKBONE|DICT|INTERRES
    41   19   21 2    
    42   20   84 1    
    43   20   85 1    
    44   22   23 am   BACKBONE|DICT|INTERRES
    45   22   86 1    
    46   23   24 2    
    47   23   25 1    
    48   25   26 1    
    49   25   27 1    
    50   25   87 1    
    51   26   88 1    
    52   26   89 1    
    53   26   90 1    
    54   27   28 am   BACKBONE|DICT|INTERRES
    55   27   91 1    
    56   28   29 2    
    57   28   30 1    
    58   30   31 1    
    59   30   32 1    
    60   30   92 1    
    61   31   93 1    
    62   31   94 1    
    63   31   95 1    
    64   32   33 am   BACKBONE|DICT|INTERRES
    65   32   96 1    
    66   33   34 2    
    67   33   35 1    
    68   35   36 1    
    69   35   37 1    
    70   35   97 1    
    71   36   98 1    
    72   36   99 1    
    73   36  100 1    
    74   37   38 am   BACKBONE|DICT|INTERRES
    75   37  101 1    
    76   38   39 2    
    77   38   40 1    
    78   40   41 1    
    79   40   42 1    
    80   40  102 1    
    81   41  103 1    
    82   41  104 1    
    83   41  105 1    
    84   42   43 am   BACKBONE|DICT|INTERRES
    85   42  106 1    
    86   43   44 2    
    87   43   45 1    
    88   45   46 1    
    89   45   49 1    
    90   45  107 1    
    91   46   47 1    
    92   46  108 1    
    93   46  109 1    
    94   47   48 1    
    95   48  110 1    
    96   48  111 1    
    97   49   50 am   BACKBONE|DICT|INTERRES
    98   49  112 1    
    99   50   51 2    
   100   50   52 1    
   101   52   53 1    
   102   52   54 1    
   103   52  113 1    
   104   53  114 1    
   105   53  115 1    
   106   53  116 1    
   107   54   55 am   BACKBONE|DICT|INTERRES
   108   54  117 1    
   109   55   56 2    
   110   55   57 1    
   111   57   58 1    
   112   57   59 1    
   113   57  118 1    
   114   58  119 1    
   115   58  120 1    
   116   58  121 1    
   117   59   60 am   BACKBONE|DICT|INTERRES
   118   59  122 1    
   119   60   61 2    
   120   60   62 1    
   121   62   63 1    
   122   62   64 1    
   123   62  123 1    
   124   63  124 1    
   125   63  125 1    
   126   63  126 1    
   127   64   65 am   BACKBONE|DICT|INTERRES
   128   64  127 1    
   129   65   66 2    
@<TRIPOS>SUBSTRUCTURE
     1 UNK         1 GROUP             0       ****    0 ROOT    
