@<TRIPOS>MOLECULE
3R134
127   129    1
SMALL
USER_CHARGES


@<TRIPOS>ATOM
      1 CA         37.9833  -45.8494  -55.1180 C.3       0 UNK        -0.1968 
      2 C          36.5020  -45.9968  -54.8010 C.2       0 UNK         0.4852 
      3 O          36.1590  -46.3912  -53.6861 O.2       0 UNK        -0.5359 
      4 N          35.6363  -45.6771  -55.7745 N.am      1 UNK        -0.4300 
      5 CA         34.1682  -45.7466  -55.7041 C.3       1 UNK         0.0863 
      6 C6         33.5385  -44.7678  -54.6744 C.3       11 UNK        -0.0953 
      7 S7         33.9612  -43.0336  -55.0469 S.3       11 UNK        -0.2369 
      8 C8         33.3803  -42.1901  -53.5408 C.3       11 UNK         0.0226 
      9 C9         31.8729  -42.3013  -53.3465 C.ar      11 UNK        -0.0699 
     10 C10        31.3540  -42.8438  -52.1664 C.ar      11 UNK        -0.0804 
     11 C11        29.9719  -42.9363  -51.9738 C.ar      11 UNK        -0.0871 
     12 C12        29.1058  -42.4916  -52.9759 C.ar      11 UNK        -0.1008 
     13 C13        29.6124  -41.9462  -54.1583 C.ar      11 UNK        -0.0735 
     14 C14        30.9949  -41.8446  -54.3351 C.ar      11 UNK        -0.0945 
     15 C15        28.6629  -41.4703  -55.2433 C.3       11 UNK         0.0169 
     16 S16        28.3777  -42.7848  -56.4625 S.3       11 UNK        -0.2669 
     17 C17        26.9224  -42.1057  -57.3339 C.3       11 UNK        -0.0850 
     18 CA         26.3641  -43.0309  -58.4476 C.3       10 UNK         0.0855 
     19 C          27.2219  -42.9671  -59.7425 C.2       10 UNK         0.5543 
     20 N          26.9740  -41.9822  -60.5962 N.am      10 UNK        -0.7343 
     21 O          28.1276  -43.7680  -59.9637 O.2       10 UNK        -0.5027 
     22 N          26.1640  -44.3970  -57.9489 N.am      10 UNK        -0.4495 
     23 C          25.4263  -45.3415  -58.5408 C.2       10 UNK         0.4903 
     24 O          24.7336  -45.1466  -59.5415 O.2       10 UNK        -0.4860 
     25 CA         25.4716  -46.7322  -57.8788 C.3       9 UNK         0.0227 
     26 CB         24.7472  -47.8205  -58.6992 C.3       9 UNK        -0.1964 
     27 N          26.8370  -47.1533  -57.5413 N.am      9 UNK        -0.4231 
     28 C          27.8622  -47.3473  -58.3881 C.2       9 UNK         0.5014 
     29 O          27.8044  -47.1813  -59.6070 O.2       9 UNK        -0.5270 
     30 CA         29.1695  -47.8647  -57.7635 C.3       8 UNK         0.0284 
     31 CB         29.9188  -46.7345  -57.0369 C.3       8 UNK        -0.1977 
     32 N          28.9293  -48.9824  -56.8468 N.am      8 UNK        -0.4342 
     33 C          28.4555  -50.1827  -57.2180 C.2       8 UNK         0.5039 
     34 O          28.3008  -50.5306  -58.3890 O.2       8 UNK        -0.5547 
     35 CA         28.0536  -51.1493  -56.0930 C.3       7 UNK         0.0281 
     36 CB         29.2561  -51.9844  -55.6202 C.3       7 UNK        -0.1963 
     37 N          27.4559  -50.4290  -54.9653 N.am      7 UNK        -0.4444 
     38 C          26.1871  -49.9933  -54.9429 C.2       7 UNK         0.5104 
     39 O          25.3656  -50.2389  -55.8258 O.2       7 UNK        -0.5100 
     40 CA         25.7486  -49.1375  -53.7399 C.3       6 UNK         0.0396 
     41 CB         25.0302  -50.0104  -52.6989 C.3       6 UNK        -0.1801 
     42 N          26.8521  -48.4267  -53.0899 N.am      6 UNK        -0.4747 
     43 C          27.4999  -47.3709  -53.6057 C.2       6 UNK         0.5012 
     44 O          27.2212  -46.8635  -54.6927 O.2       6 UNK        -0.5003 
     45 CA         28.6987  -46.8431  -52.7857 C.3       5 UNK         0.0782 
     46 C46        28.2100  -45.8538  -51.6962 C.3       11 UNK        -0.0868 
     47 S47        29.5491  -45.2989  -50.5819 S.3       11 UNK        -0.2515 
     48 C48        29.4176  -43.4876  -50.6694 C.3       11 UNK         0.0199 
     49 N          29.4999  -47.9338  -52.2104 N.am      5 UNK        -0.4607 
     50 C          30.0802  -48.9223  -52.8980 C.2       4 UNK         0.5031 
     51 O          29.9728  -49.0654  -54.1192 O.2       4 UNK        -0.5119 
     52 CA         30.8328  -49.9708  -52.0739 C.3       4 UNK         0.0263 
     53 CB         29.8336  -50.9400  -51.4090 C.3       4 UNK        -0.1967 
     54 N          31.7193  -50.6914  -52.9782 N.am      4 UNK        -0.4237 
     55 C          32.6817  -51.5602  -52.6477 C.2       3 UNK         0.4908 
     56 O          32.9681  -51.8615  -51.4884 O.2       3 UNK        -0.5102 
     57 CA         33.4515  -52.2199  -53.8073 C.3       3 UNK         0.0241 
     58 CB         32.8687  -53.6105  -54.1101 C.3       3 UNK        -0.1971 
     59 N          33.4318  -51.4154  -55.0324 N.am      3 UNK        -0.4139 
     60 C          34.1634  -50.3094  -55.2238 C.2       2 UNK         0.5016 
     61 O          35.0295  -49.9247  -54.4349 O.2       2 UNK        -0.5319 
     62 CA         33.9020  -49.5206  -56.5250 C.3       2 UNK         0.0286 
     63 CB         32.4672  -49.7009  -57.0758 C.3       2 UNK        -0.1963 
     64 N          34.2189  -48.0908  -56.4002 N.am      2 UNK        -0.4790 
     65 C          33.6686  -47.2013  -55.5559 C.2       1 UNK         0.5024 
     66 O          32.8037  -47.4808  -54.7243 O.2       1 UNK        -0.4888 
     67 H67        38.4462  -45.1464  -54.4260 H         1 UNK         0.0892 
     68 H68        38.4862  -46.8107  -55.0148 H         1 UNK         0.0892 
     69 H69        38.1512  -45.4863  -56.1317 H         1 UNK         0.0892 
     70 H70        36.0023  -45.3460  -56.6563 H         1 UNK         0.3107 
     71 H71        33.8131  -45.4335  -56.6874 H         1 UNK         0.0773 
     72 H72        32.4498  -44.8501  -54.6846 H         1 UNK         0.0680 
     73 H73        33.8562  -45.0086  -53.6588 H         1 UNK         0.0680 
     74 H74        33.6498  -41.1351  -53.6041 H         1 UNK         0.0650 
     75 H75        33.9177  -42.5949  -52.6818 H         1 UNK         0.0650 
     76 H76        32.0239  -43.1912  -51.3915 H         1 UNK         0.1397 
     77 H77        28.0358  -42.5644  -52.8359 H         1 UNK         0.1363 
     78 H78        31.3891  -41.4235  -55.2500 H         1 UNK         0.1355 
     79 H79        29.0688  -40.5902  -55.7445 H         1 UNK         0.0707 
     80 H80        27.7135  -41.1653  -54.8000 H         1 UNK         0.0707 
     81 H81        27.1678  -41.1187  -57.7315 H         1 UNK         0.1034 
     82 H82        26.1393  -41.9353  -56.5933 H         1 UNK         0.1034 
     83 H83        25.3743  -42.6505  -58.7093 H         1 UNK         0.0482 
     84 H84        26.2393  -41.3130  -60.4251 H         1 UNK         0.3460 
     85 H85        27.5278  -41.9124  -61.4358 H         1 UNK         0.3460 
     86 H86        26.7361  -44.6531  -57.1570 H         1 UNK         0.2989 
     87 H87        24.9444  -46.6353  -56.9285 H         1 UNK         0.0559 
     88 H88        23.6968  -47.5657  -58.8449 H         1 UNK         0.0848 
     89 H89        24.7791  -48.7850  -58.1922 H         1 UNK         0.0848 
     90 H90        25.1909  -47.9469  -59.6872 H         1 UNK         0.0848 
     91 H91        27.0224  -47.2555  -56.5458 H         1 UNK         0.3144 
     92 H92        29.8071  -48.2283  -58.5721 H         1 UNK         0.0727 
     93 H93        29.3470  -46.3310  -56.2017 H         1 UNK         0.0790 
     94 H94        30.1261  -45.9062  -57.7161 H         1 UNK         0.0790 
     95 H95        30.8742  -47.0811  -56.6469 H         1 UNK         0.0790 
     96 H96        29.1088  -48.8202  -55.8599 H         1 UNK         0.3215 
     97 H97        27.3096  -51.8397  -56.4972 H         1 UNK         0.0863 
     98 H98        28.9820  -52.6512  -54.8026 H         1 UNK         0.0808 
     99 H99        30.0826  -51.3615  -55.2840 H         1 UNK         0.0808 
    100 H100       29.6341  -52.6065  -56.4325 H         1 UNK         0.0808 
    101 H101       28.0851  -50.1306  -54.2325 H         1 UNK         0.3118 
    102 H102       25.0381  -48.3946  -54.1090 H         1 UNK         0.0546 
    103 H103       25.6926  -50.7684  -52.2789 H         1 UNK         0.0828 
    104 H104       24.1820  -50.5315  -53.1456 H         1 UNK         0.0828 
    105 H105       24.6410  -49.4097  -51.8767 H         1 UNK         0.0828 
    106 H106       27.1556  -48.7795  -52.1935 H         1 UNK         0.3005 
    107 H107       29.3474  -46.2995  -53.4770 H         1 UNK         0.1257 
    108 H108       27.4420  -46.3150  -51.0720 H         1 UNK         0.0775 
    109 H109       27.7375  -44.9880  -52.1628 H         1 UNK         0.0775 
    110 H110       28.3784  -43.1876  -50.5251 H         1 UNK         0.0840 
    111 H111       29.9729  -43.0568  -49.8349 H         1 UNK         0.0840 
    112 H112       29.6429  -47.8824  -51.2118 H         1 UNK         0.2987 
    113 H113       31.4336  -49.4644  -51.3158 H         1 UNK         0.0785 
    114 H114       29.1391  -50.4083  -50.7576 H         1 UNK         0.0798 
    115 H115       30.3421  -51.6796  -50.7907 H         1 UNK         0.0798 
    116 H116       29.2414  -51.4783  -52.1503 H         1 UNK         0.0798 
    117 H117       31.5828  -50.4406  -53.9492 H         1 UNK         0.3079 
    118 H118       34.4884  -52.3452  -53.4874 H         1 UNK         0.0794 
    119 H119       33.4385  -54.1194  -54.8879 H         1 UNK         0.0786 
    120 H120       31.8294  -53.5529  -54.4365 H         1 UNK         0.0786 
    121 H121       32.8960  -54.2456  -53.2234 H         1 UNK         0.0786 
    122 H122       32.7768  -51.6917  -55.7489 H         1 UNK         0.3032 
    123 H123       34.5962  -49.9234  -57.2643 H         1 UNK         0.1094 
    124 H124       32.2976  -49.0691  -57.9477 H         1 UNK         0.0794 
    125 H125       31.7140  -49.4408  -56.3314 H         1 UNK         0.0794 
    126 H126       32.2803  -50.7267  -57.3945 H         1 UNK         0.0794 
    127 H127       34.9571  -47.7596  -57.0053 H         1 UNK         0.3016 
@<TRIPOS>BOND
     1    1    2 1    
     2    1   67 1    
     3    1   68 1    
     4    1   69 1    
     5    2    3 2    
     6    2    4 am   BACKBONE|DICT|INTERRES
     7    4    5 1    
     8    4   70 1    
     9    5    6 1    
    10    5   65 1    
    11    5   71 1    
    12    6    7 1    
    13    6   72 1    
    14    6   73 1    
    15    7    8 1    
    16    8    9 1    
    17    8   74 1    
    18    8   75 1    
    19    9   10 ar   
    20    9   14 ar   
    21   10   11 ar   
    22   10   76 1    
    23   11   12 ar   
    24   11   48 1    
    25   12   13 ar   
    26   12   77 1    
    27   13   14 ar   
    28   13   15 1    
    29   14   78 1    
    30   15   16 1    
    31   15   79 1    
    32   15   80 1    
    33   16   17 1    
    34   17   18 1    
    35   17   81 1    
    36   17   82 1    
    37   18   19 1    
    38   18   22 1    
    39   18   83 1    
    40   19   20 am   BACKBONE|DICT|INTERRES
    41   19   21 2    
    42   20   84 1    
    43   20   85 1    
    44   22   23 am   BACKBONE|DICT|INTERRES
    45   22   86 1    
    46   23   24 2    
    47   23   25 1    
    48   25   26 1    
    49   25   27 1    
    50   25   87 1    
    51   26   88 1    
    52   26   89 1    
    53   26   90 1    
    54   27   28 am   BACKBONE|DICT|INTERRES
    55   27   91 1    
    56   28   29 2    
    57   28   30 1    
    58   30   31 1    
    59   30   32 1    
    60   30   92 1    
    61   31   93 1    
    62   31   94 1    
    63   31   95 1    
    64   32   33 am   BACKBONE|DICT|INTERRES
    65   32   96 1    
    66   33   34 2    
    67   33   35 1    
    68   35   36 1    
    69   35   37 1    
    70   35   97 1    
    71   36   98 1    
    72   36   99 1    
    73   36  100 1    
    74   37   38 am   BACKBONE|DICT|INTERRES
    75   37  101 1    
    76   38   39 2    
    77   38   40 1    
    78   40   41 1    
    79   40   42 1    
    80   40  102 1    
    81   41  103 1    
    82   41  104 1    
    83   41  105 1    
    84   42   43 am   BACKBONE|DICT|INTERRES
    85   42  106 1    
    86   43   44 2    
    87   43   45 1    
    88   45   46 1    
    89   45   49 1    
    90   45  107 1    
    91   46   47 1    
    92   46  108 1    
    93   46  109 1    
    94   47   48 1    
    95   48  110 1    
    96   48  111 1    
    97   49   50 am   BACKBONE|DICT|INTERRES
    98   49  112 1    
    99   50   51 2    
   100   50   52 1    
   101   52   53 1    
   102   52   54 1    
   103   52  113 1    
   104   53  114 1    
   105   53  115 1    
   106   53  116 1    
   107   54   55 am   BACKBONE|DICT|INTERRES
   108   54  117 1    
   109   55   56 2    
   110   55   57 1    
   111   57   58 1    
   112   57   59 1    
   113   57  118 1    
   114   58  119 1    
   115   58  120 1    
   116   58  121 1    
   117   59   60 am   BACKBONE|DICT|INTERRES
   118   59  122 1    
   119   60   61 2    
   120   60   62 1    
   121   62   63 1    
   122   62   64 1    
   123   62  123 1    
   124   63  124 1    
   125   63  125 1    
   126   63  126 1    
   127   64   65 am   BACKBONE|DICT|INTERRES
   128   64  127 1    
   129   65   66 2    
@<TRIPOS>SUBSTRUCTURE
     1 UNK         1 GROUP             0       ****    0 ROOT    
