@<TRIPOS>MOLECULE
3R134
127   129    1
SMALL
USER_CHARGES


@<TRIPOS>ATOM
      1 CA         30.9649  -41.9593  -52.0975 C.3       0 UNK        -0.1968 
      2 C          31.6396  -43.3116  -51.9233 C.2       0 UNK         0.4852 
      3 O          31.5677  -43.8948  -50.8411 O.2       0 UNK        -0.5359 
      4 N          32.2879  -43.8264  -52.9764 N.am      1 UNK        -0.4300 
      5 CA         33.1161  -45.0416  -52.9572 C.3       1 UNK         0.0863 
      6 C6         34.3282  -44.9661  -53.9320 C.3       11 UNK        -0.0953 
      7 S7         35.1427  -43.3216  -53.9624 S.3       11 UNK        -0.2369 
      8 C8         35.0055  -42.7537  -55.6981 C.3       11 UNK         0.0226 
      9 C9         33.6932  -43.1367  -56.3714 C.ar      11 UNK        -0.0699 
     10 C10        33.6800  -44.1721  -57.3104 C.ar      11 UNK        -0.0804 
     11 C11        32.4805  -44.6045  -57.8790 C.ar      11 UNK        -0.0871 
     12 C12        31.2859  -43.9732  -57.5236 C.ar      11 UNK        -0.1008 
     13 C13        31.2897  -42.9102  -56.6143 C.ar      11 UNK        -0.0735 
     14 C14        32.4972  -42.4892  -56.0447 C.ar      11 UNK        -0.0945 
     15 C15        29.9804  -42.2350  -56.2417 C.3       11 UNK         0.0169 
     16 S16        29.1904  -43.1006  -54.8560 S.3       11 UNK        -0.2669 
     17 C17        27.5589  -42.2812  -54.8215 C.3       11 UNK        -0.0850 
     18 CA         26.5701  -42.9759  -53.8399 C.3       10 UNK         0.0855 
     19 C          25.2139  -42.2182  -53.7086 C.2       10 UNK         0.5543 
     20 N          24.0986  -42.9006  -53.4805 N.am      10 UNK        -0.7343 
     21 O          25.1738  -40.9921  -53.7791 O.2       10 UNK        -0.5027 
     22 N          26.4657  -44.4269  -54.0815 N.am      10 UNK        -0.4495 
     23 C          25.9916  -45.0153  -55.1861 C.2       10 UNK         0.4903 
     24 O          25.3909  -44.4273  -56.0887 O.2       10 UNK        -0.4860 
     25 CA         26.2251  -46.5344  -55.2669 C.3       9 UNK         0.0227 
     26 CB         25.1619  -47.2948  -54.4571 C.3       9 UNK        -0.1964 
     27 N          26.2401  -47.0507  -56.6370 N.am      9 UNK        -0.4231 
     28 C          27.1112  -46.7042  -57.5960 C.2       9 UNK         0.5014 
     29 O          28.0136  -45.8765  -57.4573 O.2       9 UNK        -0.5270 
     30 CA         26.9710  -47.4744  -58.9147 C.3       8 UNK         0.0284 
     31 CB         27.9719  -47.0236  -59.9981 C.3       8 UNK        -0.1977 
     32 N          27.1435  -48.9018  -58.6446 N.am      8 UNK        -0.4342 
     33 C          26.4850  -49.8880  -59.2676 C.2       8 UNK         0.5039 
     34 O          25.6226  -49.6869  -60.1243 O.2       8 UNK        -0.5547 
     35 CA         26.8438  -51.3453  -58.9123 C.3       7 UNK         0.0281 
     36 CB         27.4752  -52.0529  -60.1240 C.3       7 UNK        -0.1963 
     37 N          27.7577  -51.4665  -57.7745 N.am      7 UNK        -0.4444 
     38 C          27.3919  -51.4549  -56.4860 C.2       7 UNK         0.5104 
     39 O          26.2240  -51.3757  -56.1050 O.2       7 UNK        -0.5100 
     40 CA         28.5296  -51.5154  -55.4478 C.3       6 UNK         0.0396 
     41 CB         28.7869  -52.9646  -55.0078 C.3       6 UNK        -0.1801 
     42 N          29.7895  -50.9185  -55.9115 N.am      6 UNK        -0.4747 
     43 C          29.9435  -49.6286  -56.2404 C.2       6 UNK         0.5012 
     44 O          29.0192  -48.8184  -56.2074 O.2       6 UNK        -0.5003 
     45 CA         31.3458  -49.1832  -56.6985 C.3       5 UNK         0.0782 
     46 C46        31.3743  -47.7091  -57.1778 C.3       11 UNK        -0.0868 
     47 S47        32.9203  -47.3323  -58.0634 S.3       11 UNK        -0.2515 
     48 C48        32.4877  -45.7583  -58.8703 C.3       11 UNK         0.0199 
     49 N          32.3290  -49.4203  -55.6398 N.am      5 UNK        -0.4607 
     50 C          32.9431  -50.5839  -55.3954 C.2       4 UNK         0.5031 
     51 O          32.7188  -51.6179  -56.0255 O.2       4 UNK        -0.5119 
     52 CA         33.9455  -50.6000  -54.2347 C.3       4 UNK         0.0263 
     53 CB         35.1965  -49.7720  -54.5764 C.3       4 UNK        -0.1967 
     54 N          33.3163  -50.0638  -53.0293 N.am      4 UNK        -0.4237 
     55 C          32.7815  -50.8068  -52.0496 C.2       3 UNK         0.4908 
     56 O          32.8540  -52.0352  -51.9996 O.2       3 UNK        -0.5102 
     57 CA         32.0279  -50.0568  -50.9338 C.3       3 UNK         0.0241 
     58 CB         32.9720  -49.7448  -49.7614 C.3       3 UNK        -0.1971 
     59 N          31.4072  -48.8145  -51.4001 N.am      3 UNK        -0.4139 
     60 C          30.3935  -48.7519  -52.2751 C.2       2 UNK         0.5016 
     61 O          29.7784  -49.7398  -52.6724 O.2       2 UNK        -0.5319 
     62 CA         30.0110  -47.3620  -52.8168 C.3       2 UNK         0.0286 
     63 CB         28.7029  -46.8765  -52.1738 C.3       2 UNK        -0.1963 
     64 N          31.0350  -46.3243  -52.6407 N.am      2 UNK        -0.4790 
     65 C          32.2651  -46.3155  -53.1751 C.2       1 UNK         0.5024 
     66 O          32.7248  -47.2680  -53.8086 O.2       1 UNK        -0.4888 
     67 H67        31.1687  -41.5255  -53.0761 H         1 UNK         0.0892 
     68 H68        29.8856  -42.0608  -51.9873 H         1 UNK         0.0892 
     69 H69        31.3212  -41.2624  -51.3396 H         1 UNK         0.0892 
     70 H70        32.2660  -43.3444  -53.8641 H         1 UNK         0.3107 
     71 H71        33.5378  -45.1367  -51.9544 H         1 UNK         0.0773 
     72 H72        34.0369  -45.2646  -54.9367 H         1 UNK         0.0680 
     73 H73        35.0796  -45.6986  -53.6323 H         1 UNK         0.0680 
     74 H74        35.8499  -43.1589  -56.2579 H         1 UNK         0.0650 
     75 H75        35.1220  -41.6694  -55.7227 H         1 UNK         0.0650 
     76 H76        34.6015  -44.6749  -57.5712 H         1 UNK         0.1397 
     77 H77        30.3490  -44.3121  -57.9466 H         1 UNK         0.1363 
     78 H78        32.5053  -41.6743  -55.3337 H         1 UNK         0.1355 
     79 H79        30.1497  -41.1913  -55.9721 H         1 UNK         0.0707 
     80 H80        29.3082  -42.2315  -57.1015 H         1 UNK         0.0707 
     81 H81        27.7112  -41.2375  -54.5405 H         1 UNK         0.1034 
     82 H82        27.1437  -42.2708  -55.8308 H         1 UNK         0.1034 
     83 H83        27.0119  -42.8937  -52.8462 H         1 UNK         0.0482 
     84 H84        24.1216  -43.9059  -53.4231 H         1 UNK         0.3460 
     85 H85        23.2254  -42.4064  -53.3851 H         1 UNK         0.3460 
     86 H86        26.8966  -45.0062  -53.3781 H         1 UNK         0.2989 
     87 H87        27.2069  -46.7494  -54.8395 H         1 UNK         0.0559 
     88 H88        25.1529  -46.9723  -53.4152 H         1 UNK         0.0848 
     89 H89        25.3561  -48.3679  -54.4573 H         1 UNK         0.0848 
     90 H90        24.1597  -47.1335  -54.8564 H         1 UNK         0.0848 
     91 H91        25.5391  -47.7405  -56.8633 H         1 UNK         0.3144 
     92 H92        25.9603  -47.2818  -59.2813 H         1 UNK         0.0727 
     93 H93        29.0034  -47.2049  -59.6955 H         1 UNK         0.0790 
     94 H94        27.8726  -45.9567  -60.2018 H         1 UNK         0.0790 
     95 H95        27.8015  -47.5499  -60.9373 H         1 UNK         0.0790 
     96 H96        27.7865  -49.1247  -57.8909 H         1 UNK         0.3215 
     97 H97        25.9091  -51.8565  -58.6707 H         1 UNK         0.0863 
     98 H98        27.6829  -53.1012  -59.9085 H         1 UNK         0.0808 
     99 H99        28.4097  -51.5792  -60.4277 H         1 UNK         0.0808 
    100 H100       26.8048  -52.0296  -60.9845 H         1 UNK         0.0808 
    101 H101       28.7422  -51.5438  -57.9853 H         1 UNK         0.3118 
    102 H102       28.1993  -50.9493  -54.5746 H         1 UNK         0.0546 
    103 H103       29.1530  -53.5792  -55.8310 H         1 UNK         0.0828 
    104 H104       27.8720  -53.4278  -54.6356 H         1 UNK         0.0828 
    105 H105       29.5204  -53.0079  -54.2022 H         1 UNK         0.0828 
    106 H106       30.6086  -51.5165  -55.9382 H         1 UNK         0.3005 
    107 H107       31.5956  -49.8112  -57.5571 H         1 UNK         0.1257 
    108 H108       31.2594  -47.0187  -56.3394 H         1 UNK         0.0775 
    109 H109       30.5451  -47.5061  -57.8575 H         1 UNK         0.0775 
    110 H110       33.2199  -45.5508  -59.6518 H         1 UNK         0.0840 
    111 H111       31.5239  -45.8527  -59.3734 H         1 UNK         0.0840 
    112 H112       32.5464  -48.6167  -55.0562 H         1 UNK         0.2987 
    113 H113       34.2591  -51.6335  -54.0721 H         1 UNK         0.0785 
    114 H114       35.6757  -50.1465  -55.4820 H         1 UNK         0.0798 
    115 H115       35.9335  -49.8241  -53.7750 H         1 UNK         0.0798 
    116 H116       34.9608  -48.7200  -54.7436 H         1 UNK         0.0798 
    117 H117       33.1673  -49.0609  -53.0145 H         1 UNK         0.3079 
    118 H118       31.2349  -50.7149  -50.5717 H         1 UNK         0.0794 
    119 H119       33.4295  -50.6574  -49.3765 H         1 UNK         0.0786 
    120 H120       32.4367  -49.2793  -48.9335 H         1 UNK         0.0786 
    121 H121       33.7804  -49.0756  -50.0589 H         1 UNK         0.0786 
    122 H122       31.8310  -47.9473  -51.1043 H         1 UNK         0.3032 
    123 H123       29.8443  -47.4748  -53.8906 H         1 UNK         0.1094 
    124 H124       28.4025  -45.9104  -52.5763 H         1 UNK         0.0794 
    125 H125       27.8900  -47.5791  -52.3641 H         1 UNK         0.0794 
    126 H126       28.8004  -46.7728  -51.0923 H         1 UNK         0.0794 
    127 H127       30.7736  -45.5155  -52.0896 H         1 UNK         0.3016 
@<TRIPOS>BOND
     1    1    2 1    
     2    1   67 1    
     3    1   68 1    
     4    1   69 1    
     5    2    3 2    
     6    2    4 am   BACKBONE|DICT|INTERRES
     7    4    5 1    
     8    4   70 1    
     9    5    6 1    
    10    5   65 1    
    11    5   71 1    
    12    6    7 1    
    13    6   72 1    
    14    6   73 1    
    15    7    8 1    
    16    8    9 1    
    17    8   74 1    
    18    8   75 1    
    19    9   10 ar   
    20    9   14 ar   
    21   10   11 ar   
    22   10   76 1    
    23   11   12 ar   
    24   11   48 1    
    25   12   13 ar   
    26   12   77 1    
    27   13   14 ar   
    28   13   15 1    
    29   14   78 1    
    30   15   16 1    
    31   15   79 1    
    32   15   80 1    
    33   16   17 1    
    34   17   18 1    
    35   17   81 1    
    36   17   82 1    
    37   18   19 1    
    38   18   22 1    
    39   18   83 1    
    40   19   20 am   BACKBONE|DICT|INTERRES
    41   19   21 2    
    42   20   84 1    
    43   20   85 1    
    44   22   23 am   BACKBONE|DICT|INTERRES
    45   22   86 1    
    46   23   24 2    
    47   23   25 1    
    48   25   26 1    
    49   25   27 1    
    50   25   87 1    
    51   26   88 1    
    52   26   89 1    
    53   26   90 1    
    54   27   28 am   BACKBONE|DICT|INTERRES
    55   27   91 1    
    56   28   29 2    
    57   28   30 1    
    58   30   31 1    
    59   30   32 1    
    60   30   92 1    
    61   31   93 1    
    62   31   94 1    
    63   31   95 1    
    64   32   33 am   BACKBONE|DICT|INTERRES
    65   32   96 1    
    66   33   34 2    
    67   33   35 1    
    68   35   36 1    
    69   35   37 1    
    70   35   97 1    
    71   36   98 1    
    72   36   99 1    
    73   36  100 1    
    74   37   38 am   BACKBONE|DICT|INTERRES
    75   37  101 1    
    76   38   39 2    
    77   38   40 1    
    78   40   41 1    
    79   40   42 1    
    80   40  102 1    
    81   41  103 1    
    82   41  104 1    
    83   41  105 1    
    84   42   43 am   BACKBONE|DICT|INTERRES
    85   42  106 1    
    86   43   44 2    
    87   43   45 1    
    88   45   46 1    
    89   45   49 1    
    90   45  107 1    
    91   46   47 1    
    92   46  108 1    
    93   46  109 1    
    94   47   48 1    
    95   48  110 1    
    96   48  111 1    
    97   49   50 am   BACKBONE|DICT|INTERRES
    98   49  112 1    
    99   50   51 2    
   100   50   52 1    
   101   52   53 1    
   102   52   54 1    
   103   52  113 1    
   104   53  114 1    
   105   53  115 1    
   106   53  116 1    
   107   54   55 am   BACKBONE|DICT|INTERRES
   108   54  117 1    
   109   55   56 2    
   110   55   57 1    
   111   57   58 1    
   112   57   59 1    
   113   57  118 1    
   114   58  119 1    
   115   58  120 1    
   116   58  121 1    
   117   59   60 am   BACKBONE|DICT|INTERRES
   118   59  122 1    
   119   60   61 2    
   120   60   62 1    
   121   62   63 1    
   122   62   64 1    
   123   62  123 1    
   124   63  124 1    
   125   63  125 1    
   126   63  126 1    
   127   64   65 am   BACKBONE|DICT|INTERRES
   128   64  127 1    
   129   65   66 2    
@<TRIPOS>SUBSTRUCTURE
     1 UNK         1 GROUP             0       ****    0 ROOT    
