@<TRIPOS>MOLECULE
3R134
127   129    1
SMALL
USER_CHARGES


@<TRIPOS>ATOM
      1 CA         37.1861  -46.7757  -56.9095 C.3       0 UNK        -0.1968 
      2 C          36.6774  -46.4778  -55.5063 C.2       0 UNK         0.4852 
      3 O          37.4268  -46.6447  -54.5423 O.2       0 UNK        -0.5359 
      4 N          35.4149  -46.0376  -55.3986 N.am      1 UNK        -0.4300 
      5 CA         34.6942  -45.7180  -54.1552 C.3       1 UNK         0.0863 
      6 C6         35.3146  -44.5288  -53.3638 C.3       11 UNK        -0.0953 
      7 S7         35.5392  -43.0456  -54.4059 S.3       11 UNK        -0.2369 
      8 C8         34.2603  -41.9185  -53.7675 C.3       11 UNK         0.0226 
      9 C9         32.8447  -42.4378  -53.9866 C.ar      11 UNK        -0.0699 
     10 C10        32.0240  -42.7173  -52.8899 C.ar      11 UNK        -0.0804 
     11 C11        30.7027  -43.1322  -53.0754 C.ar      11 UNK        -0.0871 
     12 C12        30.2124  -43.2660  -54.3779 C.ar      11 UNK        -0.1008 
     13 C13        31.0237  -43.0239  -55.4919 C.ar      11 UNK        -0.0735 
     14 C14        32.3396  -42.5976  -55.2817 C.ar      11 UNK        -0.0945 
     15 C15        30.5151  -43.1822  -56.9285 C.3       11 UNK         0.0169 
     16 S16        29.1019  -44.3262  -57.1449 S.3       11 UNK        -0.2669 
     17 C17        27.6655  -43.2372  -56.8120 C.3       11 UNK        -0.0850 
     18 CA         26.3762  -43.6543  -57.5652 C.3       10 UNK         0.0855 
     19 C          26.4440  -43.3416  -59.0905 C.2       10 UNK         0.5543 
     20 N          26.2353  -44.2971  -59.9888 N.am      10 UNK        -0.7343 
     21 O          26.6745  -42.1951  -59.4677 O.2       10 UNK        -0.5027 
     22 N          25.9854  -45.0286  -57.2211 N.am      10 UNK        -0.4495 
     23 C          24.7449  -45.5253  -57.2940 C.2       10 UNK         0.4903 
     24 O          23.7509  -44.8457  -57.5559 O.2       10 UNK        -0.4860 
     25 CA         24.6047  -47.0435  -57.0515 C.3       9 UNK         0.0227 
     26 CB         23.2722  -47.6132  -57.5813 C.3       9 UNK        -0.1964 
     27 N          25.7382  -47.8197  -57.5748 N.am      9 UNK        -0.4231 
     28 C          26.1972  -47.8367  -58.8374 C.2       9 UNK         0.5014 
     29 O          25.6970  -47.1857  -59.7556 O.2       9 UNK        -0.5270 
     30 CA         27.4455  -48.6845  -59.1323 C.3       8 UNK         0.0284 
     31 CB         28.6430  -47.7745  -59.4568 C.3       8 UNK        -0.1977 
     32 N          27.7941  -49.5788  -58.0232 N.am      8 UNK        -0.4342 
     33 C          27.3081  -50.8211  -57.8912 C.2       8 UNK         0.5039 
     34 O          26.5491  -51.3466  -58.7070 O.2       8 UNK        -0.5547 
     35 CA         27.7221  -51.6196  -56.6442 C.3       7 UNK         0.0281 
     36 CB         29.0897  -52.2880  -56.8530 C.3       7 UNK        -0.1963 
     37 N          27.7258  -50.8416  -55.4010 N.am      7 UNK        -0.4444 
     38 C          26.6211  -50.3441  -54.8237 C.2       7 UNK         0.5104 
     39 O          25.5039  -50.3742  -55.3388 O.2       7 UNK        -0.5100 
     40 CA         26.7838  -49.7160  -53.4315 C.3       6 UNK         0.0396 
     41 CB         26.9880  -50.8009  -52.3615 C.3       6 UNK        -0.1801 
     42 N          27.8963  -48.7729  -53.3896 N.am      6 UNK        -0.4747 
     43 C          27.8474  -47.5205  -53.8658 C.2       6 UNK         0.5012 
     44 O          26.8391  -47.0052  -54.3500 O.2       6 UNK        -0.5003 
     45 CA         29.1762  -46.7384  -53.8436 C.3       5 UNK         0.0782 
     46 C46        29.4581  -46.1323  -52.4441 C.3       11 UNK        -0.0868 
     47 S47        28.4931  -44.6241  -52.1027 S.3       11 UNK        -0.2515 
     48 C48        29.8175  -43.3867  -51.8539 C.3       11 UNK         0.0199 
     49 N          30.2968  -47.5697  -54.2938 N.am      5 UNK        -0.4607 
     50 C          30.3802  -48.1706  -55.4912 C.2       4 UNK         0.5031 
     51 O          29.5298  -48.0657  -56.3720 O.2       4 UNK        -0.5119 
     52 CA         31.5820  -49.0961  -55.7371 C.3       4 UNK         0.0263 
     53 CB         32.6910  -48.3386  -56.4812 C.3       4 UNK        -0.1967 
     54 N          32.1058  -49.6977  -54.5068 N.am      4 UNK        -0.4237 
     55 C          31.4093  -50.5438  -53.7286 C.2       3 UNK         0.4908 
     56 O          30.2724  -50.9355  -53.9996 O.2       3 UNK        -0.5102 
     57 CA         32.0527  -50.9925  -52.4030 C.3       3 UNK         0.0241 
     58 CB         32.7523  -52.3488  -52.5818 C.3       3 UNK        -0.1971 
     59 N          33.0003  -50.0261  -51.8372 N.am      3 UNK        -0.4139 
     60 C          32.7022  -48.7671  -51.4850 C.2       2 UNK         0.5016 
     61 O          31.5733  -48.2855  -51.5760 O.2       2 UNK        -0.5319 
     62 CA         33.8584  -47.8625  -51.0160 C.3       2 UNK         0.0286 
     63 CB         35.1509  -48.6272  -50.6481 C.3       2 UNK        -0.1963 
     64 N          34.1490  -46.8094  -52.0008 N.am      2 UNK        -0.4790 
     65 C          34.4597  -46.9861  -53.2957 C.2       1 UNK         0.5024 
     66 O          34.5195  -48.1010  -53.8238 O.2       1 UNK        -0.4888 
     67 H67        37.4863  -47.8205  -56.9849 H         1 UNK         0.0892 
     68 H68        36.4275  -46.5860  -57.6688 H         1 UNK         0.0892 
     69 H69        38.0527  -46.1543  -57.1340 H         1 UNK         0.0892 
     70 H70        34.8689  -45.9336  -56.2411 H         1 UNK         0.3107 
     71 H71        33.6972  -45.4053  -54.4705 H         1 UNK         0.0773 
     72 H72        34.6927  -44.2559  -52.5106 H         1 UNK         0.0680 
     73 H73        36.2871  -44.8042  -52.9527 H         1 UNK         0.0680 
     74 H74        34.3630  -40.9560  -54.2704 H         1 UNK         0.0650 
     75 H75        34.4507  -41.7303  -52.7097 H         1 UNK         0.0650 
     76 H76        32.4080  -42.5883  -51.8870 H         1 UNK         0.1397 
     77 H77        29.1883  -43.5645  -54.5148 H         1 UNK         0.1363 
     78 H78        32.9762  -42.3812  -56.1290 H         1 UNK         0.1355 
     79 H79        31.3294  -43.5626  -57.5471 H         1 UNK         0.0707 
     80 H80        30.2630  -42.2006  -57.3312 H         1 UNK         0.0707 
     81 H81        27.4526  -43.2483  -55.7435 H         1 UNK         0.1034 
     82 H82        27.9230  -42.2022  -57.0444 H         1 UNK         0.1034 
     83 H83        25.5843  -43.0032  -57.1898 H         1 UNK         0.0482 
     84 H84        26.2784  -44.0637  -60.9675 H         1 UNK         0.3460 
     85 H85        26.0238  -45.2500  -59.7115 H         1 UNK         0.3460 
     86 H86        26.7459  -45.6559  -57.0017 H         1 UNK         0.2989 
     87 H87        24.6144  -47.1817  -55.9696 H         1 UNK         0.0559 
     88 H88        23.1697  -47.4677  -58.6572 H         1 UNK         0.0848 
     89 H89        22.4203  -47.1273  -57.1042 H         1 UNK         0.0848 
     90 H90        23.1901  -48.6808  -57.3772 H         1 UNK         0.0848 
     91 H91        26.2224  -48.3903  -56.8954 H         1 UNK         0.3144 
     92 H92        27.2325  -49.2783  -60.0238 H         1 UNK         0.0727 
     93 H93        28.8417  -47.0618  -58.6562 H         1 UNK         0.0790 
     94 H94        28.4550  -47.1938  -60.3608 H         1 UNK         0.0790 
     95 H95        29.5511  -48.3531  -59.6255 H         1 UNK         0.0790 
     96 H96        28.4215  -49.1947  -57.3170 H         1 UNK         0.3215 
     97 H97        26.9860  -52.4167  -56.5165 H         1 UNK         0.0863 
     98 H98        29.3762  -52.8897  -55.9902 H         1 UNK         0.0808 
     99 H99        29.8757  -51.5559  -57.0280 H         1 UNK         0.0808 
    100 H100       29.0685  -52.9517  -57.7184 H         1 UNK         0.0808 
    101 H101       28.6086  -50.7893  -54.8968 H         1 UNK         0.3118 
    102 H102       25.8619  -49.1808  -53.1928 H         1 UNK         0.0546 
    103 H103       26.1633  -51.5149  -52.3691 H         1 UNK         0.0828 
    104 H104       27.0303  -50.3676  -51.3622 H         1 UNK         0.0828 
    105 H105       27.9082  -51.3646  -52.5206 H         1 UNK         0.0828 
    106 H106       28.7840  -49.1273  -53.0602 H         1 UNK         0.3005 
    107 H107       29.0838  -45.9303  -54.5707 H         1 UNK         0.1257 
    108 H108       30.5169  -45.8824  -52.3587 H         1 UNK         0.0775 
    109 H109       29.2692  -46.8567  -51.6495 H         1 UNK         0.0775 
    110 H110       29.3563  -42.4425  -51.5620 H         1 UNK         0.0840 
    111 H111       30.4279  -43.7052  -51.0073 H         1 UNK         0.0840 
    112 H112       31.0037  -47.7690  -53.5963 H         1 UNK         0.2987 
    113 H113       31.2491  -49.9095  -56.3811 H         1 UNK         0.0785 
    114 H114       32.9820  -47.4336  -55.9509 H         1 UNK         0.0798 
    115 H115       32.3509  -48.0338  -57.4720 H         1 UNK         0.0798 
    116 H116       33.5800  -48.9549  -56.6165 H         1 UNK         0.0798 
    117 H117       33.0238  -49.3858  -54.2025 H         1 UNK         0.3079 
    118 H118       31.2435  -51.1170  -51.6804 H         1 UNK         0.0794 
    119 H119       33.5931  -52.2816  -53.2735 H         1 UNK         0.0786 
    120 H120       32.0619  -53.0944  -52.9792 H         1 UNK         0.0786 
    121 H121       33.1268  -52.7314  -51.6320 H         1 UNK         0.0786 
    122 H122       33.9629  -50.3223  -51.7649 H         1 UNK         0.3032 
    123 H123       33.5006  -47.3643  -50.1132 H         1 UNK         0.1094 
    124 H124       35.8933  -47.9504  -50.2249 H         1 UNK         0.0794 
    125 H125       34.9568  -49.3933  -49.8959 H         1 UNK         0.0794 
    126 H126       35.6099  -49.1127  -51.5101 H         1 UNK         0.0794 
    127 H127       34.0732  -45.8634  -51.6547 H         1 UNK         0.3016 
@<TRIPOS>BOND
     1    1    2 1    
     2    1   67 1    
     3    1   68 1    
     4    1   69 1    
     5    2    3 2    
     6    2    4 am   BACKBONE|DICT|INTERRES
     7    4    5 1    
     8    4   70 1    
     9    5    6 1    
    10    5   65 1    
    11    5   71 1    
    12    6    7 1    
    13    6   72 1    
    14    6   73 1    
    15    7    8 1    
    16    8    9 1    
    17    8   74 1    
    18    8   75 1    
    19    9   10 ar   
    20    9   14 ar   
    21   10   11 ar   
    22   10   76 1    
    23   11   12 ar   
    24   11   48 1    
    25   12   13 ar   
    26   12   77 1    
    27   13   14 ar   
    28   13   15 1    
    29   14   78 1    
    30   15   16 1    
    31   15   79 1    
    32   15   80 1    
    33   16   17 1    
    34   17   18 1    
    35   17   81 1    
    36   17   82 1    
    37   18   19 1    
    38   18   22 1    
    39   18   83 1    
    40   19   20 am   BACKBONE|DICT|INTERRES
    41   19   21 2    
    42   20   84 1    
    43   20   85 1    
    44   22   23 am   BACKBONE|DICT|INTERRES
    45   22   86 1    
    46   23   24 2    
    47   23   25 1    
    48   25   26 1    
    49   25   27 1    
    50   25   87 1    
    51   26   88 1    
    52   26   89 1    
    53   26   90 1    
    54   27   28 am   BACKBONE|DICT|INTERRES
    55   27   91 1    
    56   28   29 2    
    57   28   30 1    
    58   30   31 1    
    59   30   32 1    
    60   30   92 1    
    61   31   93 1    
    62   31   94 1    
    63   31   95 1    
    64   32   33 am   BACKBONE|DICT|INTERRES
    65   32   96 1    
    66   33   34 2    
    67   33   35 1    
    68   35   36 1    
    69   35   37 1    
    70   35   97 1    
    71   36   98 1    
    72   36   99 1    
    73   36  100 1    
    74   37   38 am   BACKBONE|DICT|INTERRES
    75   37  101 1    
    76   38   39 2    
    77   38   40 1    
    78   40   41 1    
    79   40   42 1    
    80   40  102 1    
    81   41  103 1    
    82   41  104 1    
    83   41  105 1    
    84   42   43 am   BACKBONE|DICT|INTERRES
    85   42  106 1    
    86   43   44 2    
    87   43   45 1    
    88   45   46 1    
    89   45   49 1    
    90   45  107 1    
    91   46   47 1    
    92   46  108 1    
    93   46  109 1    
    94   47   48 1    
    95   48  110 1    
    96   48  111 1    
    97   49   50 am   BACKBONE|DICT|INTERRES
    98   49  112 1    
    99   50   51 2    
   100   50   52 1    
   101   52   53 1    
   102   52   54 1    
   103   52  113 1    
   104   53  114 1    
   105   53  115 1    
   106   53  116 1    
   107   54   55 am   BACKBONE|DICT|INTERRES
   108   54  117 1    
   109   55   56 2    
   110   55   57 1    
   111   57   58 1    
   112   57   59 1    
   113   57  118 1    
   114   58  119 1    
   115   58  120 1    
   116   58  121 1    
   117   59   60 am   BACKBONE|DICT|INTERRES
   118   59  122 1    
   119   60   61 2    
   120   60   62 1    
   121   62   63 1    
   122   62   64 1    
   123   62  123 1    
   124   63  124 1    
   125   63  125 1    
   126   63  126 1    
   127   64   65 am   BACKBONE|DICT|INTERRES
   128   64  127 1    
   129   65   66 2    
@<TRIPOS>SUBSTRUCTURE
     1 UNK         1 GROUP             0       ****    0 ROOT    
