@<TRIPOS>MOLECULE
3R134
127   129    1
SMALL
USER_CHARGES


@<TRIPOS>ATOM
      1 CA         38.3234  -44.8698  -53.4499 C.3       0 UNK        -0.1968 
      2 C          36.8295  -45.1541  -53.4936 C.2       0 UNK         0.4852 
      3 O          36.3558  -45.7971  -54.4317 O.2       0 UNK        -0.5359 
      4 N          36.0840  -44.6923  -52.4811 N.am      1 UNK        -0.4300 
      5 CA         34.6279  -44.8391  -52.3448 C.3       1 UNK         0.0863 
      6 C6         34.0148  -43.6958  -51.4900 C.3       11 UNK        -0.0953 
      7 S7         34.4664  -42.0333  -52.1039 S.3       11 UNK        -0.2369 
      8 C8         32.8397  -41.2366  -52.3440 C.3       11 UNK         0.0226 
      9 C9         31.9919  -41.7519  -53.5101 C.ar      11 UNK        -0.0699 
     10 C10        32.4872  -42.6172  -54.4943 C.ar      11 UNK        -0.0804 
     11 C11        31.6581  -43.0802  -55.5182 C.ar      11 UNK        -0.0871 
     12 C12        30.3413  -42.6226  -55.5963 C.ar      11 UNK        -0.1008 
     13 C13        29.8253  -41.7472  -54.6333 C.ar      11 UNK        -0.0735 
     14 C14        30.6615  -41.3272  -53.5937 C.ar      11 UNK        -0.0945 
     15 C15        28.3785  -41.2420  -54.6471 C.3       11 UNK         0.0169 
     16 S16        27.4230  -41.5447  -56.1761 S.3       11 UNK        -0.2669 
     17 C17        26.9682  -43.3029  -55.9809 C.3       11 UNK        -0.0850 
     18 CA         26.6098  -43.9845  -57.3265 C.3       10 UNK         0.0855 
     19 C          27.8397  -44.1866  -58.2476 C.2       10 UNK         0.5543 
     20 N          27.9093  -43.4757  -59.3642 N.am      10 UNK        -0.7343 
     21 O          28.7442  -44.9604  -57.9447 O.2       10 UNK        -0.5027 
     22 N          25.9832  -45.2838  -57.0824 N.am      10 UNK        -0.4495 
     23 C          24.6896  -45.5773  -57.2500 C.2       10 UNK         0.4903 
     24 O          23.8356  -44.7551  -57.5866 O.2       10 UNK        -0.4860 
     25 CA         24.2913  -47.0441  -56.9919 C.3       9 UNK         0.0227 
     26 CB         22.8620  -47.3823  -57.4663 C.3       9 UNK        -0.1964 
     27 N          25.2677  -47.9944  -57.5363 N.am      9 UNK        -0.4231 
     28 C          25.6300  -48.1559  -58.8189 C.2       9 UNK         0.5014 
     29 O          25.1140  -47.5514  -59.7602 O.2       9 UNK        -0.5270 
     30 CA         26.7796  -49.1395  -59.1164 C.3       8 UNK         0.0284 
     31 CB         28.0325  -48.3660  -59.5608 C.3       8 UNK        -0.1977 
     32 N          27.1304  -50.0068  -57.9869 N.am      8 UNK        -0.4342 
     33 C          26.3882  -51.0339  -57.5495 C.2       8 UNK         0.5039 
     34 O          25.3541  -51.4138  -58.0997 O.2       8 UNK        -0.5547 
     35 CA         26.8543  -51.7286  -56.2574 C.3       7 UNK         0.0281 
     36 CB         27.9378  -52.7751  -56.5615 C.3       7 UNK        -0.1963 
     37 N          27.3459  -50.7878  -55.2453 N.am      7 UNK        -0.4444 
     38 C          26.6047  -49.8378  -54.6560 C.2       7 UNK         0.5104 
     39 O          25.4051  -49.6705  -54.8721 O.2       7 UNK        -0.5100 
     40 CA         27.3381  -48.8684  -53.7142 C.3       6 UNK         0.0396 
     41 CB         27.5436  -49.4882  -52.3229 C.3       6 UNK        -0.1801 
     42 N          28.6208  -48.4308  -54.2699 N.am      6 UNK        -0.4747 
     43 C          28.7423  -47.6526  -55.3566 C.2       6 UNK         0.5012 
     44 O          27.7800  -47.1805  -55.9608 O.2       6 UNK        -0.5003 
     45 CA         30.1705  -47.3930  -55.8734 C.3       5 UNK         0.0782 
     46 C46        30.7897  -46.1772  -55.1452 C.3       11 UNK        -0.0868 
     47 S47        32.4511  -45.7344  -55.7651 S.3       11 UNK        -0.2515 
     48 C48        32.1721  -44.0994  -56.5271 C.3       11 UNK         0.0199 
     49 N          30.9964  -48.6000  -55.7630 N.am      5 UNK        -0.4607 
     50 C          30.8210  -49.7021  -56.5070 C.2       4 UNK         0.5031 
     51 O          29.9640  -49.7993  -57.3838 O.2       4 UNK        -0.5119 
     52 CA         31.7085  -50.9210  -56.1929 C.3       4 UNK         0.0263 
     53 CB         33.0316  -50.8351  -56.9695 C.3       4 UNK        -0.1967 
     54 N          31.9907  -51.0736  -54.7644 N.am      4 UNK        -0.4237 
     55 C          31.0609  -51.2313  -53.8112 C.2       3 UNK         0.4908 
     56 O          29.8665  -51.4007  -54.0530 O.2       3 UNK        -0.5102 
     57 CA         31.5181  -51.1294  -52.3425 C.3       3 UNK         0.0241 
     58 CB         31.5961  -52.5280  -51.7102 C.3       3 UNK        -0.1971 
     59 N          32.7956  -50.4314  -52.1372 N.am      3 UNK        -0.4139 
     60 C          33.0712  -49.1740  -52.5154 C.2       2 UNK         0.5016 
     61 O          32.2663  -48.4491  -53.1051 O.2       2 UNK        -0.5319 
     62 CA         34.5088  -48.6932  -52.2516 C.3       2 UNK         0.0286 
     63 CB         35.5145  -49.4911  -53.1018 C.3       2 UNK        -0.1963 
     64 N          34.6907  -47.2743  -52.5554 N.am      2 UNK        -0.4790 
     65 C          34.2715  -46.2454  -51.8102 C.2       1 UNK         0.5024 
     66 O          33.6853  -46.3789  -50.7339 O.2       1 UNK        -0.4888 
     67 H67        38.6235  -44.3085  -54.3343 H         1 UNK         0.0892 
     68 H68        38.6032  -44.2907  -52.5700 H         1 UNK         0.0892 
     69 H69        38.8825  -45.8049  -53.4330 H         1 UNK         0.0892 
     70 H70        36.5330  -44.1858  -51.7315 H         1 UNK         0.3107 
     71 H71        34.1840  -44.7788  -53.3394 H         1 UNK         0.0773 
     72 H72        34.3493  -43.7674  -50.4535 H         1 UNK         0.0680 
     73 H73        32.9272  -43.7877  -51.4671 H         1 UNK         0.0680 
     74 H74        33.0105  -40.1701  -52.4961 H         1 UNK         0.0650 
     75 H75        32.2738  -41.3271  -51.4155 H         1 UNK         0.0650 
     76 H76        33.5118  -42.9550  -54.4681 H         1 UNK         0.1397 
     77 H77        29.7230  -42.9751  -56.4063 H         1 UNK         0.1363 
     78 H78        30.2715  -40.6570  -52.8391 H         1 UNK         0.1355 
     79 H79        28.3883  -40.1639  -54.4796 H         1 UNK         0.0707 
     80 H80        27.8422  -41.6770  -53.8024 H         1 UNK         0.0707 
     81 H81        27.7595  -43.8523  -55.4677 H         1 UNK         0.1034 
     82 H82        26.1062  -43.3376  -55.3127 H         1 UNK         0.1034 
     83 H83        25.9007  -43.3402  -57.8504 H         1 UNK         0.0482 
     84 H84        27.1820  -42.8235  -59.6127 H         1 UNK         0.3460 
     85 H85        28.7085  -43.5900  -59.9671 H         1 UNK         0.3460 
     86 H86        26.6294  -46.0249  -56.8125 H         1 UNK         0.2989 
     87 H87        24.3169  -47.1771  -55.9095 H         1 UNK         0.0559 
     88 H88        22.1246  -46.7603  -56.9575 H         1 UNK         0.0848 
     89 H89        22.6102  -48.4212  -57.2538 H         1 UNK         0.0848 
     90 H90        22.7394  -47.2191  -58.5374 H         1 UNK         0.0848 
     91 H91        25.7665  -48.5362  -56.8419 H         1 UNK         0.3144 
     92 H92        26.4580  -49.7732  -59.9455 H         1 UNK         0.0727 
     93 H93        28.4038  -47.7149  -58.7684 H         1 UNK         0.0790 
     94 H94        27.8203  -47.7358  -60.4255 H         1 UNK         0.0790 
     95 H95        28.8385  -49.0430  -59.8444 H         1 UNK         0.0790 
     96 H96        28.0208  -49.8189  -57.5322 H         1 UNK         0.3215 
     97 H97        25.9919  -52.2459  -55.8315 H         1 UNK         0.0863 
     98 H98        28.2426  -53.3057  -55.6591 H         1 UNK         0.0808 
     99 H99        28.8268  -52.3205  -56.9985 H         1 UNK         0.0808 
    100 H100       27.5717  -53.5202  -57.2690 H         1 UNK         0.0808 
    101 H101       28.3158  -50.8916  -54.9527 H         1 UNK         0.3118 
    102 H102       26.7094  -47.9833  -53.5939 H         1 UNK         0.0546 
    103 H103       28.1436  -50.3969  -52.3610 H         1 UNK         0.0828 
    104 H104       26.5857  -49.7540  -51.8741 H         1 UNK         0.0828 
    105 H105       28.0345  -48.7896  -51.6453 H         1 UNK         0.0828 
    106 H106       29.4601  -48.8025  -53.8477 H         1 UNK         0.3005 
    107 H107       30.0848  -47.1413  -56.9332 H         1 UNK         0.1257 
    108 H108       30.1243  -45.3192  -55.2402 H         1 UNK         0.0775 
    109 H109       30.8749  -46.3696  -54.0743 H         1 UNK         0.0775 
    110 H110       33.1096  -43.7426  -56.9558 H         1 UNK         0.0840 
    111 H111       31.4760  -44.2110  -57.3604 H         1 UNK         0.0840 
    112 H112       31.6824  -48.5970  -55.0142 H         1 UNK         0.2987 
    113 H113       31.1743  -51.8144  -56.5218 H         1 UNK         0.0785 
    114 H114       32.8480  -50.7429  -58.0410 H         1 UNK         0.0798 
    115 H115       33.6380  -51.7291  -56.8225 H         1 UNK         0.0798 
    116 H116       33.6243  -49.9713  -56.6651 H         1 UNK         0.0798 
    117 H117       32.9490  -50.9498  -54.4749 H         1 UNK         0.3079 
    118 H118       30.7521  -50.5586  -51.8138 H         1 UNK         0.0794 
    119 H119       31.8080  -52.4709  -50.6423 H         1 UNK         0.0786 
    120 H120       32.3702  -53.1393  -52.1758 H         1 UNK         0.0786 
    121 H121       30.6500  -53.0604  -51.8212 H         1 UNK         0.0786 
    122 H122       33.5180  -50.9602  -51.6691 H         1 UNK         0.3032 
    123 H123       34.7290  -48.8511  -51.1933 H         1 UNK         0.1094 
    124 H124       35.3151  -49.3826  -54.1690 H         1 UNK         0.0794 
    125 H125       36.5365  -49.1568  -52.9205 H         1 UNK         0.0794 
    126 H126       35.4847  -50.5561  -52.8690 H         1 UNK         0.0794 
    127 H127       35.1684  -47.0463  -53.4225 H         1 UNK         0.3016 
@<TRIPOS>BOND
     1    1    2 1    
     2    1   67 1    
     3    1   68 1    
     4    1   69 1    
     5    2    3 2    
     6    2    4 am   BACKBONE|DICT|INTERRES
     7    4    5 1    
     8    4   70 1    
     9    5    6 1    
    10    5   65 1    
    11    5   71 1    
    12    6    7 1    
    13    6   72 1    
    14    6   73 1    
    15    7    8 1    
    16    8    9 1    
    17    8   74 1    
    18    8   75 1    
    19    9   10 ar   
    20    9   14 ar   
    21   10   11 ar   
    22   10   76 1    
    23   11   12 ar   
    24   11   48 1    
    25   12   13 ar   
    26   12   77 1    
    27   13   14 ar   
    28   13   15 1    
    29   14   78 1    
    30   15   16 1    
    31   15   79 1    
    32   15   80 1    
    33   16   17 1    
    34   17   18 1    
    35   17   81 1    
    36   17   82 1    
    37   18   19 1    
    38   18   22 1    
    39   18   83 1    
    40   19   20 am   BACKBONE|DICT|INTERRES
    41   19   21 2    
    42   20   84 1    
    43   20   85 1    
    44   22   23 am   BACKBONE|DICT|INTERRES
    45   22   86 1    
    46   23   24 2    
    47   23   25 1    
    48   25   26 1    
    49   25   27 1    
    50   25   87 1    
    51   26   88 1    
    52   26   89 1    
    53   26   90 1    
    54   27   28 am   BACKBONE|DICT|INTERRES
    55   27   91 1    
    56   28   29 2    
    57   28   30 1    
    58   30   31 1    
    59   30   32 1    
    60   30   92 1    
    61   31   93 1    
    62   31   94 1    
    63   31   95 1    
    64   32   33 am   BACKBONE|DICT|INTERRES
    65   32   96 1    
    66   33   34 2    
    67   33   35 1    
    68   35   36 1    
    69   35   37 1    
    70   35   97 1    
    71   36   98 1    
    72   36   99 1    
    73   36  100 1    
    74   37   38 am   BACKBONE|DICT|INTERRES
    75   37  101 1    
    76   38   39 2    
    77   38   40 1    
    78   40   41 1    
    79   40   42 1    
    80   40  102 1    
    81   41  103 1    
    82   41  104 1    
    83   41  105 1    
    84   42   43 am   BACKBONE|DICT|INTERRES
    85   42  106 1    
    86   43   44 2    
    87   43   45 1    
    88   45   46 1    
    89   45   49 1    
    90   45  107 1    
    91   46   47 1    
    92   46  108 1    
    93   46  109 1    
    94   47   48 1    
    95   48  110 1    
    96   48  111 1    
    97   49   50 am   BACKBONE|DICT|INTERRES
    98   49  112 1    
    99   50   51 2    
   100   50   52 1    
   101   52   53 1    
   102   52   54 1    
   103   52  113 1    
   104   53  114 1    
   105   53  115 1    
   106   53  116 1    
   107   54   55 am   BACKBONE|DICT|INTERRES
   108   54  117 1    
   109   55   56 2    
   110   55   57 1    
   111   57   58 1    
   112   57   59 1    
   113   57  118 1    
   114   58  119 1    
   115   58  120 1    
   116   58  121 1    
   117   59   60 am   BACKBONE|DICT|INTERRES
   118   59  122 1    
   119   60   61 2    
   120   60   62 1    
   121   62   63 1    
   122   62   64 1    
   123   62  123 1    
   124   63  124 1    
   125   63  125 1    
   126   63  126 1    
   127   64   65 am   BACKBONE|DICT|INTERRES
   128   64  127 1    
   129   65   66 2    
@<TRIPOS>SUBSTRUCTURE
     1 UNK         1 GROUP             0       ****    0 ROOT    
