@<TRIPOS>MOLECULE
3R134
127   129    1
SMALL
USER_CHARGES


@<TRIPOS>ATOM
      1 CA         33.3498  -48.1184  -58.2956 C.3       0 UNK        -0.1968 
      2 C          33.2393  -47.6299  -56.8596 C.2       0 UNK         0.4852 
      3 O          32.6770  -48.3283  -56.0163 O.2       0 UNK        -0.5359 
      4 N          33.7937  -46.4435  -56.5749 N.am      1 UNK        -0.4300 
      5 CA         33.8013  -45.7717  -55.2667 C.3       1 UNK         0.0863 
      6 C6         34.4803  -44.3830  -55.4058 C.3       11 UNK        -0.0953 
      7 S7         34.6389  -43.4069  -53.8719 S.3       11 UNK        -0.2369 
      8 C8         33.3930  -42.0982  -54.1089 C.3       11 UNK         0.0226 
      9 C9         31.9804  -42.5403  -53.7449 C.ar      11 UNK        -0.0699 
     10 C10        31.7216  -43.1131  -52.4971 C.ar      11 UNK        -0.0804 
     11 C11        30.4184  -43.4440  -52.1216 C.ar      11 UNK        -0.0871 
     12 C12        29.3621  -43.1911  -53.0010 C.ar      11 UNK        -0.1008 
     13 C13        29.6027  -42.6285  -54.2615 C.ar      11 UNK        -0.0735 
     14 C14        30.9173  -42.3093  -54.6233 C.ar      11 UNK        -0.0945 
     15 C15        28.4739  -42.2956  -55.2370 C.3       11 UNK         0.0169 
     16 S16        26.9665  -43.3117  -55.0622 S.3       11 UNK        -0.2669 
     17 C17        26.1158  -42.8906  -56.6245 C.3       11 UNK        -0.0850 
     18 CA         26.1087  -44.0484  -57.6613 C.3       10 UNK         0.0855 
     19 C          25.3947  -43.6153  -58.9664 C.2       10 UNK         0.5543 
     20 N          24.0699  -43.6574  -58.9913 N.am      10 UNK        -0.7343 
     21 O          26.0253  -43.2124  -59.9429 O.2       10 UNK        -0.5027 
     22 N          27.4603  -44.5478  -57.9565 N.am      10 UNK        -0.4495 
     23 C          27.9722  -45.6804  -57.4686 C.2       10 UNK         0.4903 
     24 O          27.3713  -46.4302  -56.6981 O.2       10 UNK        -0.4860 
     25 CA         29.4104  -46.0234  -57.8695 C.3       9 UNK         0.0227 
     26 CB         30.4017  -45.2892  -56.9550 C.3       9 UNK        -0.1964 
     27 N          29.5883  -47.4676  -57.7266 N.am      9 UNK        -0.4231 
     28 C          29.4434  -48.3425  -58.7291 C.2       9 UNK         0.5014 
     29 O          29.4511  -48.0375  -59.9225 O.2       9 UNK        -0.5270 
     30 CA         29.1782  -49.7982  -58.3231 C.3       8 UNK         0.0284 
     31 CB         30.4368  -50.4746  -57.7585 C.3       8 UNK        -0.1977 
     32 N          28.0866  -49.8616  -57.3471 N.am      8 UNK        -0.4342 
     33 C          26.7880  -49.8482  -57.6818 C.2       8 UNK         0.5039 
     34 O          26.3771  -49.8192  -58.8426 O.2       8 UNK        -0.5547 
     35 CA         25.7725  -49.8701  -56.5361 C.3       7 UNK         0.0281 
     36 CB         26.0365  -51.0162  -55.5393 C.3       7 UNK        -0.1963 
     37 N          25.7665  -48.5783  -55.8583 N.am      7 UNK        -0.4444 
     38 C          24.7986  -48.1284  -55.0527 C.2       7 UNK         0.5104 
     39 O          23.7538  -48.7433  -54.8278 O.2       7 UNK        -0.5100 
     40 CA         25.0602  -46.7668  -54.3720 C.3       6 UNK         0.0396 
     41 CB         24.0731  -46.4668  -53.2251 C.3       6 UNK        -0.1801 
     42 N          26.4471  -46.6082  -53.9099 N.am      6 UNK        -0.4747 
     43 C          27.1157  -47.4204  -53.0782 C.2       6 UNK         0.5012 
     44 O          26.6229  -48.4164  -52.5417 O.2       6 UNK        -0.5003 
     45 CA         28.5707  -47.0363  -52.7425 C.3       5 UNK         0.0782 
     46 C46        28.5916  -46.3194  -51.3682 C.3       11 UNK        -0.0868 
     47 S47        30.2639  -45.8636  -50.7991 S.3       11 UNK        -0.2515 
     48 C48        30.1614  -44.0483  -50.7512 C.3       11 UNK         0.0199 
     49 N          29.4116  -48.2358  -52.7367 N.am      5 UNK        -0.4607 
     50 C          29.7482  -48.9595  -53.8094 C.2       4 UNK         0.5031 
     51 O          29.4771  -48.6515  -54.9741 O.2       4 UNK        -0.5119 
     52 CA         30.4440  -50.2929  -53.5143 C.3       4 UNK         0.0263 
     53 CB         29.5461  -51.4722  -53.9416 C.3       4 UNK        -0.1967 
     54 N          31.7493  -50.3612  -54.1714 N.am      4 UNK        -0.4237 
     55 C          32.6820  -51.2796  -53.8759 C.2       3 UNK         0.4908 
     56 O          32.5483  -52.1344  -52.9987 O.2       3 UNK        -0.5102 
     57 CA         33.9879  -51.2512  -54.6784 C.3       3 UNK         0.0241 
     58 CB         33.7497  -51.5800  -56.1625 C.3       3 UNK        -0.1971 
     59 N          34.6603  -49.9607  -54.5447 N.am      3 UNK        -0.4139 
     60 C          35.5735  -49.6761  -53.6045 C.2       2 UNK         0.5016 
     61 O          35.9366  -50.4781  -52.7427 O.2       2 UNK        -0.5319 
     62 CA         36.2285  -48.2814  -53.6338 C.3       2 UNK         0.0286 
     63 CB         37.6957  -48.3863  -54.0838 C.3       2 UNK        -0.1963 
     64 N          35.5378  -47.3313  -54.5078 N.am      2 UNK        -0.4790 
     65 C          34.4370  -46.6488  -54.1632 C.2       1 UNK         0.5024 
     66 O          33.9071  -46.7263  -53.0543 O.2       1 UNK        -0.4888 
     67 H67        34.0329  -47.5049  -58.8825 H         1 UNK         0.0892 
     68 H68        33.7154  -49.1441  -58.3203 H         1 UNK         0.0892 
     69 H69        32.3742  -48.0909  -58.7772 H         1 UNK         0.0892 
     70 H70        34.2454  -45.9328  -57.3202 H         1 UNK         0.3107 
     71 H71        32.7599  -45.6109  -54.9797 H         1 UNK         0.0773 
     72 H72        35.4886  -44.5035  -55.8062 H         1 UNK         0.0680 
     73 H73        33.9412  -43.7897  -56.1458 H         1 UNK         0.0680 
     74 H74        33.4419  -41.7263  -55.1333 H         1 UNK         0.0650 
     75 H75        33.6587  -41.2558  -53.4690 H         1 UNK         0.0650 
     76 H76        32.5378  -43.2901  -51.8098 H         1 UNK         0.1397 
     77 H77        28.3529  -43.4221  -52.6925 H         1 UNK         0.1363 
     78 H78        31.1100  -41.8504  -55.5835 H         1 UNK         0.1355 
     79 H79        28.8403  -42.3999  -56.2590 H         1 UNK         0.0707 
     80 H80        28.2040  -41.2465  -55.1105 H         1 UNK         0.0707 
     81 H81        25.0913  -42.6107  -56.3724 H         1 UNK         0.1034 
     82 H82        26.5660  -41.9947  -57.0561 H         1 UNK         0.1034 
     83 H83        25.5130  -44.8637  -57.2462 H         1 UNK         0.0482 
     84 H84        23.5875  -43.3676  -59.8279 H         1 UNK         0.3460 
     85 H85        23.5403  -43.9779  -58.1956 H         1 UNK         0.3460 
     86 H86        27.9821  -44.0048  -58.6303 H         1 UNK         0.2989 
     87 H87        29.5771  -45.7078  -58.9014 H         1 UNK         0.0559 
     88 H88        30.2085  -44.2172  -56.9418 H         1 UNK         0.0848 
     89 H89        30.3496  -45.6449  -55.9247 H         1 UNK         0.0848 
     90 H90        31.4206  -45.4142  -57.3119 H         1 UNK         0.0848 
     91 H91        29.5358  -47.8219  -56.7744 H         1 UNK         0.3144 
     92 H92        28.8861  -50.3487  -59.2203 H         1 UNK         0.0727 
     93 H93        30.2505  -51.5210  -57.5173 H         1 UNK         0.0790 
     94 H94        30.7900  -49.9826  -56.8543 H         1 UNK         0.0790 
     95 H95        31.2505  -50.4495  -58.4839 H         1 UNK         0.0790 
     96 H96        28.3479  -49.7876  -56.3705 H         1 UNK         0.3215 
     97 H97        24.7891  -50.0288  -56.9843 H         1 UNK         0.0863 
     98 H98        26.2138  -51.9604  -56.0561 H         1 UNK         0.0808 
     99 H99        26.9022  -50.8090  -54.9133 H         1 UNK         0.0808 
    100 H100       25.1838  -51.1667  -54.8772 H         1 UNK         0.0808 
    101 H101       26.5376  -47.9438  -56.0677 H         1 UNK         0.3118 
    102 H102       24.9085  -46.0093  -55.1416 H         1 UNK         0.0546 
    103 H103       23.0436  -46.4653  -53.5850 H         1 UNK         0.0828 
    104 H104       24.2625  -45.4874  -52.7859 H         1 UNK         0.0828 
    105 H105       24.1387  -47.2104  -52.4303 H         1 UNK         0.0828 
    106 H106       26.9458  -45.8416  -54.3452 H         1 UNK         0.3005 
    107 H107       28.9514  -46.3579  -53.5101 H         1 UNK         0.1257 
    108 H108       28.1567  -46.9595  -50.5975 H         1 UNK         0.0775 
    109 H109       27.9613  -45.4292  -51.3987 H         1 UNK         0.0775 
    110 H110       29.1938  -43.7296  -50.3606 H         1 UNK         0.0840 
    111 H111       30.9033  -43.6785  -50.0416 H         1 UNK         0.0840 
    112 H112       29.6628  -48.5775  -51.8212 H         1 UNK         0.2987 
    113 H113       30.6093  -50.3647  -52.4369 H         1 UNK         0.0785 
    114 H114       28.5781  -51.4183  -53.4428 H         1 UNK         0.0798 
    115 H115       29.9818  -52.4342  -53.6734 H         1 UNK         0.0798 
    116 H116       29.3695  -51.4774  -55.0172 H         1 UNK         0.0798 
    117 H117       31.9434  -49.6422  -54.8690 H         1 UNK         0.3079 
    118 H118       34.6354  -52.0358  -54.2802 H         1 UNK         0.0794 
    119 H119       33.2674  -52.5522  -56.2716 H         1 UNK         0.0786 
    120 H120       34.6895  -51.6214  -56.7131 H         1 UNK         0.0786 
    121 H121       33.1104  -50.8471  -56.6505 H         1 UNK         0.0786 
    122 H122       34.3339  -49.2177  -55.1507 H         1 UNK         0.3032 
    123 H123       36.2129  -47.8977  -52.6107 H         1 UNK         0.1094 
    124 H124       38.1917  -47.4160  -54.0503 H         1 UNK         0.0794 
    125 H125       38.2579  -49.0567  -53.4320 H         1 UNK         0.0794 
    126 H126       37.7807  -48.7737  -55.0999 H         1 UNK         0.0794 
    127 H127       35.9052  -47.2166  -55.4417 H         1 UNK         0.3016 
@<TRIPOS>BOND
     1    1    2 1    
     2    1   67 1    
     3    1   68 1    
     4    1   69 1    
     5    2    3 2    
     6    2    4 am   BACKBONE|DICT|INTERRES
     7    4    5 1    
     8    4   70 1    
     9    5    6 1    
    10    5   65 1    
    11    5   71 1    
    12    6    7 1    
    13    6   72 1    
    14    6   73 1    
    15    7    8 1    
    16    8    9 1    
    17    8   74 1    
    18    8   75 1    
    19    9   10 ar   
    20    9   14 ar   
    21   10   11 ar   
    22   10   76 1    
    23   11   12 ar   
    24   11   48 1    
    25   12   13 ar   
    26   12   77 1    
    27   13   14 ar   
    28   13   15 1    
    29   14   78 1    
    30   15   16 1    
    31   15   79 1    
    32   15   80 1    
    33   16   17 1    
    34   17   18 1    
    35   17   81 1    
    36   17   82 1    
    37   18   19 1    
    38   18   22 1    
    39   18   83 1    
    40   19   20 am   BACKBONE|DICT|INTERRES
    41   19   21 2    
    42   20   84 1    
    43   20   85 1    
    44   22   23 am   BACKBONE|DICT|INTERRES
    45   22   86 1    
    46   23   24 2    
    47   23   25 1    
    48   25   26 1    
    49   25   27 1    
    50   25   87 1    
    51   26   88 1    
    52   26   89 1    
    53   26   90 1    
    54   27   28 am   BACKBONE|DICT|INTERRES
    55   27   91 1    
    56   28   29 2    
    57   28   30 1    
    58   30   31 1    
    59   30   32 1    
    60   30   92 1    
    61   31   93 1    
    62   31   94 1    
    63   31   95 1    
    64   32   33 am   BACKBONE|DICT|INTERRES
    65   32   96 1    
    66   33   34 2    
    67   33   35 1    
    68   35   36 1    
    69   35   37 1    
    70   35   97 1    
    71   36   98 1    
    72   36   99 1    
    73   36  100 1    
    74   37   38 am   BACKBONE|DICT|INTERRES
    75   37  101 1    
    76   38   39 2    
    77   38   40 1    
    78   40   41 1    
    79   40   42 1    
    80   40  102 1    
    81   41  103 1    
    82   41  104 1    
    83   41  105 1    
    84   42   43 am   BACKBONE|DICT|INTERRES
    85   42  106 1    
    86   43   44 2    
    87   43   45 1    
    88   45   46 1    
    89   45   49 1    
    90   45  107 1    
    91   46   47 1    
    92   46  108 1    
    93   46  109 1    
    94   47   48 1    
    95   48  110 1    
    96   48  111 1    
    97   49   50 am   BACKBONE|DICT|INTERRES
    98   49  112 1    
    99   50   51 2    
   100   50   52 1    
   101   52   53 1    
   102   52   54 1    
   103   52  113 1    
   104   53  114 1    
   105   53  115 1    
   106   53  116 1    
   107   54   55 am   BACKBONE|DICT|INTERRES
   108   54  117 1    
   109   55   56 2    
   110   55   57 1    
   111   57   58 1    
   112   57   59 1    
   113   57  118 1    
   114   58  119 1    
   115   58  120 1    
   116   58  121 1    
   117   59   60 am   BACKBONE|DICT|INTERRES
   118   59  122 1    
   119   60   61 2    
   120   60   62 1    
   121   62   63 1    
   122   62   64 1    
   123   62  123 1    
   124   63  124 1    
   125   63  125 1    
   126   63  126 1    
   127   64   65 am   BACKBONE|DICT|INTERRES
   128   64  127 1    
   129   65   66 2    
@<TRIPOS>SUBSTRUCTURE
     1 UNK         1 GROUP             0       ****    0 ROOT    
