@<TRIPOS>MOLECULE
3R134
127   129    1
SMALL
USER_CHARGES


@<TRIPOS>ATOM
      1 CA         36.3737  -47.5829  -54.4211 C.3       0 UNK        -0.1968 
      2 C          35.0025  -47.0602  -54.0241 C.2       0 UNK         0.4852 
      3 O          34.0809  -47.8522  -53.8164 O.2       0 UNK        -0.5359 
      4 N          34.8554  -45.7338  -53.9096 N.am      1 UNK        -0.4300 
      5 CA         33.5904  -45.0473  -53.6101 C.3       1 UNK         0.0863 
      6 C6         33.7068  -43.5129  -53.7816 C.3       11 UNK        -0.0953 
      7 S7         34.1227  -43.0450  -55.4967 S.3       11 UNK        -0.2369 
      8 C8         32.4907  -42.5940  -56.1727 C.3       11 UNK         0.0226 
      9 C9         31.5627  -43.7966  -56.2666 C.ar      11 UNK        -0.0699 
     10 C10        31.6572  -44.6778  -57.3481 C.ar      11 UNK        -0.0804 
     11 C11        30.8370  -45.8080  -57.4144 C.ar      11 UNK        -0.0871 
     12 C12        29.9028  -46.0353  -56.3990 C.ar      11 UNK        -0.1008 
     13 C13        29.7819  -45.1563  -55.3196 C.ar      11 UNK        -0.0735 
     14 C14        30.6224  -44.0385  -55.2603 C.ar      11 UNK        -0.0945 
     15 C15        28.7667  -45.4769  -54.2216 C.3       11 UNK         0.0169 
     16 S16        28.1334  -44.0460  -53.2754 S.3       11 UNK        -0.2669 
     17 C17        27.3804  -42.9872  -54.5601 C.3       11 UNK        -0.0850 
     18 CA         25.8548  -43.2157  -54.7190 C.3       10 UNK         0.0855 
     19 C          25.2073  -42.0577  -55.5372 C.2       10 UNK         0.5543 
     20 N          24.6795  -42.2858  -56.7347 N.am      10 UNK        -0.7343 
     21 O          25.1811  -40.9228  -55.0677 O.2       10 UNK        -0.5027 
     22 N          25.5809  -44.5589  -55.2461 N.am      10 UNK        -0.4495 
     23 C          24.3974  -45.1832  -55.2256 C.2       10 UNK         0.4903 
     24 O          23.4084  -44.7563  -54.6279 O.2       10 UNK        -0.4860 
     25 CA         24.3114  -46.5027  -56.0241 C.3       9 UNK         0.0227 
     26 CB         22.8796  -46.8039  -56.5145 C.3       9 UNK        -0.1964 
     27 N          25.2681  -46.5816  -57.1407 N.am      9 UNK        -0.4231 
     28 C          25.3712  -45.7354  -58.1816 C.2       9 UNK         0.5014 
     29 O          24.6361  -44.7598  -58.3391 O.2       9 UNK        -0.5270 
     30 CA         26.5164  -45.9586  -59.1879 C.3       8 UNK         0.0284 
     31 CB         27.5759  -44.8526  -59.0387 C.3       8 UNK        -0.1977 
     32 N          27.1647  -47.2664  -59.0637 N.am      8 UNK        -0.4342 
     33 C          26.6382  -48.4166  -59.5026 C.2       8 UNK         0.5039 
     34 O          25.5660  -48.4903  -60.1040 O.2       8 UNK        -0.5547 
     35 CA         27.4286  -49.7076  -59.2222 C.3       7 UNK         0.0281 
     36 CB         28.3063  -50.0626  -60.4336 C.3       7 UNK        -0.1963 
     37 N          28.2670  -49.7123  -58.0155 N.am      7 UNK        -0.4444 
     38 C          27.8909  -49.4391  -56.7607 C.2       7 UNK         0.5104 
     39 O          26.8031  -48.9428  -56.4696 O.2       7 UNK        -0.5100 
     40 CA         28.8857  -49.7610  -55.6256 C.3       6 UNK         0.0396 
     41 CB         28.6974  -51.2145  -55.1550 C.3       6 UNK        -0.1801 
     42 N          30.3107  -49.4844  -55.8780 N.am      6 UNK        -0.4747 
     43 C          31.1378  -49.9985  -56.8040 C.2       6 UNK         0.5012 
     44 O          30.7823  -50.7507  -57.7116 O.2       6 UNK        -0.5003 
     45 CA         32.6285  -49.6359  -56.6524 C.3       5 UNK         0.0782 
     46 C46        32.9188  -48.1438  -56.9464 C.3       11 UNK        -0.0868 
     47 S47        32.6058  -47.6027  -58.6622 S.3       11 UNK        -0.2515 
     48 C48        30.9681  -46.7982  -58.5672 C.3       11 UNK         0.0199 
     49 N          33.0925  -49.9710  -55.3059 N.am      5 UNK        -0.4607 
     50 C          33.1890  -51.1961  -54.7739 C.2       4 UNK         0.5031 
     51 O          32.9992  -52.2386  -55.3998 O.2       4 UNK        -0.5119 
     52 CA         33.5293  -51.2551  -53.2765 C.3       4 UNK         0.0263 
     53 CB         35.0421  -51.1119  -53.0454 C.3       4 UNK        -0.1967 
     54 N          32.8088  -50.2089  -52.5415 N.am      4 UNK        -0.4237 
     55 C          31.5755  -50.3687  -52.0400 C.2       3 UNK         0.4908 
     56 O          30.9769  -51.4454  -52.0648 O.2       3 UNK        -0.5102 
     57 CA         30.8573  -49.1362  -51.4476 C.3       3 UNK         0.0241 
     58 CB         29.9620  -49.5052  -50.2455 C.3       3 UNK        -0.1971 
     59 N          31.7176  -47.9941  -51.1135 N.am      3 UNK        -0.4139 
     60 C          32.7108  -47.9277  -50.2151 C.2       2 UNK         0.5016 
     61 O          33.1022  -48.8911  -49.5544 O.2       2 UNK        -0.5319 
     62 CA         33.3812  -46.5443  -50.0401 C.3       2 UNK         0.0286 
     63 CB         34.5989  -46.5912  -49.0979 C.3       2 UNK        -0.1963 
     64 N          33.7997  -45.9588  -51.3186 N.am      2 UNK        -0.4790 
     65 C          32.9886  -45.4079  -52.2339 C.2       1 UNK         0.5024 
     66 O          31.7837  -45.2421  -52.0427 O.2       1 UNK        -0.4888 
     67 H67        37.0360  -46.7804  -54.7450 H         1 UNK         0.0892 
     68 H68        36.8400  -48.0912  -53.5779 H         1 UNK         0.0892 
     69 H69        36.2799  -48.2946  -55.2409 H         1 UNK         0.0892 
     70 H70        35.6412  -45.1278  -54.0988 H         1 UNK         0.3107 
     71 H71        32.8698  -45.4147  -54.3427 H         1 UNK         0.0773 
     72 H72        32.7804  -43.0119  -53.4953 H         1 UNK         0.0680 
     73 H73        34.4782  -43.1141  -53.1205 H         1 UNK         0.0680 
     74 H74        32.6287  -42.1620  -57.1649 H         1 UNK         0.0650 
     75 H75        32.0457  -41.8094  -55.5588 H         1 UNK         0.0650 
     76 H76        32.3900  -44.5006  -58.1235 H         1 UNK         0.1397 
     77 H77        29.2681  -46.9068  -56.4405 H         1 UNK         0.1363 
     78 H78        30.5624  -43.3630  -54.4190 H         1 UNK         0.1355 
     79 H79        29.2411  -46.1605  -53.5163 H         1 UNK         0.0707 
     80 H80        27.9173  -46.0169  -54.6414 H         1 UNK         0.0707 
     81 H81        27.5815  -41.9558  -54.2633 H         1 UNK         0.1034 
     82 H82        27.8915  -43.1215  -55.5147 H         1 UNK         0.1034 
     83 H83        25.4049  -43.1610  -53.7257 H         1 UNK         0.0482 
     84 H84        24.6825  -43.2125  -57.1492 H         1 UNK         0.3460 
     85 H85        24.2644  -41.5189  -57.2389 H         1 UNK         0.3460 
     86 H86        26.3277  -44.9859  -55.7697 H         1 UNK         0.2989 
     87 H87        24.5956  -47.2941  -55.3291 H         1 UNK         0.0559 
     88 H88        22.1868  -46.8891  -55.6765 H         1 UNK         0.0848 
     89 H89        22.5026  -46.0172  -57.1689 H         1 UNK         0.0848 
     90 H90        22.8386  -47.7448  -57.0631 H         1 UNK         0.0848 
     91 H91        25.9102  -47.3697  -57.0897 H         1 UNK         0.3144 
     92 H92        26.0871  -45.8815  -60.1892 H         1 UNK         0.0727 
     93 H93        27.9957  -44.8223  -58.0337 H         1 UNK         0.0790 
     94 H94        27.1414  -43.8708  -59.2326 H         1 UNK         0.0790 
     95 H95        28.3959  -44.9844  -59.7447 H         1 UNK         0.0790 
     96 H96        28.0480  -47.3009  -58.5811 H         1 UNK         0.3215 
     97 H97        26.6918  -50.5030  -59.0929 H         1 UNK         0.0863 
     98 H98        27.7153  -50.1000  -61.3500 H         1 UNK         0.0808 
     99 H99        29.0991  -49.3290  -60.5852 H         1 UNK         0.0808 
    100 H100       28.7738  -51.0401  -60.3125 H         1 UNK         0.0808 
    101 H101       29.1916  -50.1325  -58.1120 H         1 UNK         0.3118 
    102 H102       28.6117  -49.1137  -54.7907 H         1 UNK         0.0546 
    103 H103       27.6585  -51.4074  -54.8836 H         1 UNK         0.0828 
    104 H104       29.3051  -51.4288  -54.2761 H         1 UNK         0.0828 
    105 H105       28.9692  -51.9315  -55.9304 H         1 UNK         0.0828 
    106 H106       30.7382  -48.8658  -55.2038 H         1 UNK         0.3005 
    107 H107       33.1908  -50.2475  -57.3616 H         1 UNK         0.1257 
    108 H108       33.9788  -47.9551  -56.7713 H         1 UNK         0.0775 
    109 H109       32.4038  -47.5008  -56.2330 H         1 UNK         0.0775 
    110 H110       30.7789  -46.2769  -59.5066 H         1 UNK         0.0840 
    111 H111       30.2107  -47.5783  -58.4969 H         1 UNK         0.0840 
    112 H112       33.3436  -49.1793  -54.7153 H         1 UNK         0.2987 
    113 H113       33.2311  -52.2376  -52.9036 H         1 UNK         0.0785 
    114 H114       35.5892  -51.9068  -53.5538 H         1 UNK         0.0798 
    115 H115       35.2870  -51.1758  -51.9851 H         1 UNK         0.0798 
    116 H116       35.4250  -50.1639  -53.4199 H         1 UNK         0.0798 
    117 H117       33.2276  -49.2853  -52.5369 H         1 UNK         0.3079 
    118 H118       30.1990  -48.7804  -52.2415 H         1 UNK         0.0794 
    119 H119       29.2095  -50.2439  -50.5243 H         1 UNK         0.0786 
    120 H120       29.4287  -48.6338  -49.8655 H         1 UNK         0.0786 
    121 H121       30.5431  -49.9273  -49.4249 H         1 UNK         0.0786 
    122 H122       31.5035  -47.1271  -51.5984 H         1 UNK         0.3032 
    123 H123       32.6346  -45.8889  -49.5854 H         1 UNK         0.1094 
    124 H124       35.0272  -45.5993  -48.9524 H         1 UNK         0.0794 
    125 H125       34.3178  -46.9665  -48.1128 H         1 UNK         0.0794 
    126 H126       35.3832  -47.2435  -49.4842 H         1 UNK         0.0794 
    127 H127       34.7664  -46.0937  -51.5769 H         1 UNK         0.3016 
@<TRIPOS>BOND
     1    1    2 1    
     2    1   67 1    
     3    1   68 1    
     4    1   69 1    
     5    2    3 2    
     6    2    4 am   BACKBONE|DICT|INTERRES
     7    4    5 1    
     8    4   70 1    
     9    5    6 1    
    10    5   65 1    
    11    5   71 1    
    12    6    7 1    
    13    6   72 1    
    14    6   73 1    
    15    7    8 1    
    16    8    9 1    
    17    8   74 1    
    18    8   75 1    
    19    9   10 ar   
    20    9   14 ar   
    21   10   11 ar   
    22   10   76 1    
    23   11   12 ar   
    24   11   48 1    
    25   12   13 ar   
    26   12   77 1    
    27   13   14 ar   
    28   13   15 1    
    29   14   78 1    
    30   15   16 1    
    31   15   79 1    
    32   15   80 1    
    33   16   17 1    
    34   17   18 1    
    35   17   81 1    
    36   17   82 1    
    37   18   19 1    
    38   18   22 1    
    39   18   83 1    
    40   19   20 am   BACKBONE|DICT|INTERRES
    41   19   21 2    
    42   20   84 1    
    43   20   85 1    
    44   22   23 am   BACKBONE|DICT|INTERRES
    45   22   86 1    
    46   23   24 2    
    47   23   25 1    
    48   25   26 1    
    49   25   27 1    
    50   25   87 1    
    51   26   88 1    
    52   26   89 1    
    53   26   90 1    
    54   27   28 am   BACKBONE|DICT|INTERRES
    55   27   91 1    
    56   28   29 2    
    57   28   30 1    
    58   30   31 1    
    59   30   32 1    
    60   30   92 1    
    61   31   93 1    
    62   31   94 1    
    63   31   95 1    
    64   32   33 am   BACKBONE|DICT|INTERRES
    65   32   96 1    
    66   33   34 2    
    67   33   35 1    
    68   35   36 1    
    69   35   37 1    
    70   35   97 1    
    71   36   98 1    
    72   36   99 1    
    73   36  100 1    
    74   37   38 am   BACKBONE|DICT|INTERRES
    75   37  101 1    
    76   38   39 2    
    77   38   40 1    
    78   40   41 1    
    79   40   42 1    
    80   40  102 1    
    81   41  103 1    
    82   41  104 1    
    83   41  105 1    
    84   42   43 am   BACKBONE|DICT|INTERRES
    85   42  106 1    
    86   43   44 2    
    87   43   45 1    
    88   45   46 1    
    89   45   49 1    
    90   45  107 1    
    91   46   47 1    
    92   46  108 1    
    93   46  109 1    
    94   47   48 1    
    95   48  110 1    
    96   48  111 1    
    97   49   50 am   BACKBONE|DICT|INTERRES
    98   49  112 1    
    99   50   51 2    
   100   50   52 1    
   101   52   53 1    
   102   52   54 1    
   103   52  113 1    
   104   53  114 1    
   105   53  115 1    
   106   53  116 1    
   107   54   55 am   BACKBONE|DICT|INTERRES
   108   54  117 1    
   109   55   56 2    
   110   55   57 1    
   111   57   58 1    
   112   57   59 1    
   113   57  118 1    
   114   58  119 1    
   115   58  120 1    
   116   58  121 1    
   117   59   60 am   BACKBONE|DICT|INTERRES
   118   59  122 1    
   119   60   61 2    
   120   60   62 1    
   121   62   63 1    
   122   62   64 1    
   123   62  123 1    
   124   63  124 1    
   125   63  125 1    
   126   63  126 1    
   127   64   65 am   BACKBONE|DICT|INTERRES
   128   64  127 1    
   129   65   66 2    
@<TRIPOS>SUBSTRUCTURE
     1 UNK         1 GROUP             0       ****    0 ROOT    
