@<TRIPOS>MOLECULE
3R134
127   129    1
SMALL
USER_CHARGES


@<TRIPOS>ATOM
      1 CA         30.4727  -44.5002  -52.7384 C.3       0 UNK        -0.1968 
      2 C          31.8071  -44.3890  -52.0194 C.2       0 UNK         0.4852 
      3 O          31.8644  -44.5882  -50.8053 O.2       0 UNK        -0.5359 
      4 N          32.8765  -44.0572  -52.7541 N.am      1 UNK        -0.4300 
      5 CA         34.2225  -43.8353  -52.2082 C.3       1 UNK         0.0863 
      6 C6         35.1064  -42.9806  -53.1515 C.3       11 UNK        -0.0953 
      7 S7         34.3556  -41.3744  -53.5834 S.3       11 UNK        -0.2369 
      8 C8         34.2190  -41.5025  -55.3944 C.3       11 UNK         0.0226 
      9 C9         33.0816  -42.4198  -55.8196 C.ar      11 UNK        -0.0699 
     10 C10        33.3283  -43.7593  -56.1364 C.ar      11 UNK        -0.0804 
     11 C11        32.2848  -44.5962  -56.5427 C.ar      11 UNK        -0.0871 
     12 C12        30.9901  -44.0797  -56.6536 C.ar      11 UNK        -0.1008 
     13 C13        30.7328  -42.7426  -56.3393 C.ar      11 UNK        -0.0735 
     14 C14        31.7806  -41.9186  -55.9190 C.ar      11 UNK        -0.0945 
     15 C15        29.3255  -42.1842  -56.4638 C.3       11 UNK         0.0169 
     16 S16        28.4504  -42.2664  -54.8694 S.3       11 UNK        -0.2669 
     17 C17        26.9202  -43.1528  -55.3203 C.3       11 UNK        -0.0850 
     18 CA         26.9736  -44.6746  -54.9772 C.3       10 UNK         0.0855 
     19 C          26.6248  -45.0220  -53.4966 C.2       10 UNK         0.5543 
     20 N          26.9124  -44.1383  -52.5503 N.am      10 UNK        -0.7343 
     21 O          26.1357  -46.1072  -53.1887 O.2       10 UNK        -0.5027 
     22 N          26.2170  -45.4852  -55.9421 N.am      10 UNK        -0.4495 
     23 C          24.9063  -45.3706  -56.2029 C.2       10 UNK         0.4903 
     24 O          24.1816  -44.5208  -55.6823 O.2       10 UNK        -0.4860 
     25 CA         24.2859  -46.3740  -57.1971 C.3       9 UNK         0.0227 
     26 CB         23.1345  -45.7594  -58.0214 C.3       9 UNK        -0.1964 
     27 N          25.2629  -47.0418  -58.0656 N.am      9 UNK        -0.4231 
     28 C          26.0445  -46.4915  -59.0105 C.2       9 UNK         0.5014 
     29 O          26.0024  -45.3010  -59.3224 O.2       9 UNK        -0.5270 
     30 CA         27.0670  -47.4110  -59.7105 C.3       8 UNK         0.0284 
     31 CB         28.4604  -46.7553  -59.7613 C.3       8 UNK        -0.1977 
     32 N          27.1839  -48.7051  -59.0349 N.am      8 UNK        -0.4342 
     33 C          26.5667  -49.8369  -59.4020 C.2       8 UNK         0.5039 
     34 O          25.8980  -49.9495  -60.4296 O.2       8 UNK        -0.5547 
     35 CA         26.6819  -51.0404  -58.4451 C.3       7 UNK         0.0281 
     36 CB         27.7729  -52.0082  -58.9297 C.3       7 UNK        -0.1963 
     37 N          26.9522  -50.6523  -57.0550 N.am      7 UNK        -0.4444 
     38 C          26.0854  -49.9856  -56.2739 C.2       7 UNK         0.5104 
     39 O          24.9430  -49.6985  -56.6288 O.2       7 UNK        -0.5100 
     40 CA         26.5854  -49.4838  -54.9038 C.3       6 UNK         0.0396 
     41 CB         26.1768  -50.4617  -53.7921 C.3       6 UNK        -0.1801 
     42 N          28.0336  -49.2654  -54.8503 N.am      6 UNK        -0.4747 
     43 C          28.7197  -48.4264  -55.6411 C.2       6 UNK         0.5012 
     44 O          28.1765  -47.6476  -56.4265 O.2       6 UNK        -0.5003 
     45 CA         30.2611  -48.5212  -55.6225 C.3       5 UNK         0.0782 
     46 C46        30.8807  -47.2682  -54.9642 C.3       11 UNK        -0.0868 
     47 S47        32.6454  -47.0870  -55.3820 S.3       11 UNK        -0.2515 
     48 C48        32.5665  -46.0527  -56.8783 C.3       11 UNK         0.0199 
     49 N          30.7663  -49.7710  -55.0303 N.am      5 UNK        -0.4607 
     50 C          30.5562  -50.9976  -55.5333 C.2       4 UNK         0.5031 
     51 O          29.8974  -51.1911  -56.5555 O.2       4 UNK        -0.5119 
     52 CA         31.0762  -52.2192  -54.7487 C.3       4 UNK         0.0263 
     53 CB         31.8338  -53.2076  -55.6611 C.3       4 UNK        -0.1967 
     54 N          31.8418  -51.9018  -53.5334 N.am      4 UNK        -0.4237 
     55 C          33.0625  -51.3550  -53.4519 C.2       3 UNK         0.4908 
     56 O          33.7556  -51.0474  -54.4240 O.2       3 UNK        -0.5102 
     57 CA         33.6015  -51.1306  -52.0279 C.3       3 UNK         0.0241 
     58 CB         34.4022  -52.3555  -51.5566 C.3       3 UNK        -0.1971 
     59 N          34.4543  -49.9434  -51.9586 N.am      3 UNK        -0.4139 
     60 C          34.0191  -48.6880  -52.1242 C.2       2 UNK         0.5016 
     61 O          32.8269  -48.3847  -52.2298 O.2       2 UNK        -0.5319 
     62 CA         35.1039  -47.6031  -52.1853 C.3       2 UNK         0.0286 
     63 CB         36.0867  -47.8424  -53.3495 C.3       2 UNK        -0.1963 
     64 N          34.4872  -46.2897  -52.3530 N.am      2 UNK        -0.4790 
     65 C          34.9591  -45.1441  -51.8472 C.2       1 UNK         0.5024 
     66 O          35.9636  -45.0851  -51.1354 O.2       1 UNK        -0.4888 
     67 H67        30.5833  -44.4028  -53.8171 H         1 UNK         0.0892 
     68 H68        30.0026  -45.4592  -52.5245 H         1 UNK         0.0892 
     69 H69        29.8043  -43.7113  -52.3961 H         1 UNK         0.0892 
     70 H70        32.7715  -43.8812  -53.7446 H         1 UNK         0.3107 
     71 H71        34.1110  -43.2785  -51.2749 H         1 UNK         0.0773 
     72 H72        35.3491  -43.5349  -54.0587 H         1 UNK         0.0680 
     73 H73        36.0643  -42.7641  -52.6744 H         1 UNK         0.0680 
     74 H74        35.1678  -41.8421  -55.8130 H         1 UNK         0.0650 
     75 H75        34.0515  -40.5042  -55.8013 H         1 UNK         0.0650 
     76 H76        34.3328  -44.1547  -56.0711 H         1 UNK         0.1397 
     77 H77        30.1797  -44.7171  -56.9812 H         1 UNK         0.1363 
     78 H78        31.5836  -40.8836  -55.6739 H         1 UNK         0.1355 
     79 H79        28.7849  -42.7292  -57.2388 H         1 UNK         0.0707 
     80 H80        29.3621  -41.1452  -56.7951 H         1 UNK         0.0707 
     81 H81        26.0729  -42.6726  -54.8262 H         1 UNK         0.1034 
     82 H82        26.7351  -43.0074  -56.3858 H         1 UNK         0.1034 
     83 H83        28.0023  -45.0128  -55.1089 H         1 UNK         0.0482 
     84 H84        27.3318  -43.2534  -52.7928 H         1 UNK         0.3460 
     85 H85        26.7036  -44.3561  -51.5887 H         1 UNK         0.3460 
     86 H86        26.7373  -46.2487  -56.3608 H         1 UNK         0.2989 
     87 H87        23.8543  -47.1636  -56.5811 H         1 UNK         0.0559 
     88 H88        22.3279  -45.4165  -57.3726 H         1 UNK         0.0848 
     89 H89        22.7052  -46.4875  -58.7095 H         1 UNK         0.0848 
     90 H90        23.4661  -44.8999  -58.6043 H         1 UNK         0.0848 
     91 H91        25.3655  -48.0340  -57.8878 H         1 UNK         0.3144 
     92 H92        26.7218  -47.5547  -60.7363 H         1 UNK         0.0727 
     93 H93        28.8329  -46.5134  -58.7653 H         1 UNK         0.0790 
     94 H94        28.4358  -45.8263  -60.3321 H         1 UNK         0.0790 
     95 H95        29.1886  -47.4080  -60.2426 H         1 UNK         0.0790 
     96 H96        27.6838  -48.6876  -58.1530 H         1 UNK         0.3215 
     97 H97        25.7253  -51.5673  -58.4653 H         1 UNK         0.0863 
     98 H98        27.8536  -52.8777  -58.2774 H         1 UNK         0.0808 
     99 H99        28.7509  -51.5270  -58.9699 H         1 UNK         0.0808 
    100 H100       27.5501  -52.3745  -59.9328 H         1 UNK         0.0808 
    101 H101       27.8880  -50.8425  -56.7083 H         1 UNK         0.3118 
    102 H102       26.1009  -48.5241  -54.7115 H         1 UNK         0.0546 
    103 H103       26.6527  -51.4355  -53.9137 H         1 UNK         0.0828 
    104 H104       25.0978  -50.6236  -53.7932 H         1 UNK         0.0828 
    105 H105       26.4421  -50.0761  -52.8075 H         1 UNK         0.0828 
    106 H106       28.5598  -49.8630  -54.2297 H         1 UNK         0.3005 
    107 H107       30.5559  -48.5292  -56.6745 H         1 UNK         0.1257 
    108 H108       30.3542  -46.3618  -55.2618 H         1 UNK         0.0775 
    109 H109       30.7874  -47.3264  -53.8788 H         1 UNK         0.0775 
    110 H110       33.5190  -46.1267  -57.4052 H         1 UNK         0.0840 
    111 H111       31.8129  -46.4467  -57.5621 H         1 UNK         0.0840 
    112 H112       31.3388  -49.6728  -54.2033 H         1 UNK         0.2987 
    113 H113       30.1810  -52.7350  -54.3973 H         1 UNK         0.0785 
    114 H114       31.1908  -53.5671  -56.4657 H         1 UNK         0.0798 
    115 H115       32.1732  -54.0819  -55.1056 H         1 UNK         0.0798 
    116 H116       32.7040  -52.7468  -56.1293 H         1 UNK         0.0798 
    117 H117       31.3658  -52.1134  -52.6662 H         1 UNK         0.3079 
    118 H118       32.7591  -50.9799  -51.3491 H         1 UNK         0.0794 
    119 H119       34.7659  -52.2247  -50.5371 H         1 UNK         0.0786 
    120 H120       35.2630  -52.5467  -52.1990 H         1 UNK         0.0786 
    121 H121       33.7842  -53.2545  -51.5654 H         1 UNK         0.0786 
    122 H122       35.4486  -50.1089  -51.9053 H         1 UNK         0.3032 
    123 H123       35.6467  -47.6367  -51.2375 H         1 UNK         0.1094 
    124 H124       35.5684  -47.8737  -54.3092 H         1 UNK         0.0794 
    125 H125       36.8385  -47.0545  -53.4026 H         1 UNK         0.0794 
    126 H126       36.6228  -48.7850  -53.2373 H         1 UNK         0.0794 
    127 H127       33.6118  -46.2910  -52.8624 H         1 UNK         0.3016 
@<TRIPOS>BOND
     1    1    2 1    
     2    1   67 1    
     3    1   68 1    
     4    1   69 1    
     5    2    3 2    
     6    2    4 am   BACKBONE|DICT|INTERRES
     7    4    5 1    
     8    4   70 1    
     9    5    6 1    
    10    5   65 1    
    11    5   71 1    
    12    6    7 1    
    13    6   72 1    
    14    6   73 1    
    15    7    8 1    
    16    8    9 1    
    17    8   74 1    
    18    8   75 1    
    19    9   10 ar   
    20    9   14 ar   
    21   10   11 ar   
    22   10   76 1    
    23   11   12 ar   
    24   11   48 1    
    25   12   13 ar   
    26   12   77 1    
    27   13   14 ar   
    28   13   15 1    
    29   14   78 1    
    30   15   16 1    
    31   15   79 1    
    32   15   80 1    
    33   16   17 1    
    34   17   18 1    
    35   17   81 1    
    36   17   82 1    
    37   18   19 1    
    38   18   22 1    
    39   18   83 1    
    40   19   20 am   BACKBONE|DICT|INTERRES
    41   19   21 2    
    42   20   84 1    
    43   20   85 1    
    44   22   23 am   BACKBONE|DICT|INTERRES
    45   22   86 1    
    46   23   24 2    
    47   23   25 1    
    48   25   26 1    
    49   25   27 1    
    50   25   87 1    
    51   26   88 1    
    52   26   89 1    
    53   26   90 1    
    54   27   28 am   BACKBONE|DICT|INTERRES
    55   27   91 1    
    56   28   29 2    
    57   28   30 1    
    58   30   31 1    
    59   30   32 1    
    60   30   92 1    
    61   31   93 1    
    62   31   94 1    
    63   31   95 1    
    64   32   33 am   BACKBONE|DICT|INTERRES
    65   32   96 1    
    66   33   34 2    
    67   33   35 1    
    68   35   36 1    
    69   35   37 1    
    70   35   97 1    
    71   36   98 1    
    72   36   99 1    
    73   36  100 1    
    74   37   38 am   BACKBONE|DICT|INTERRES
    75   37  101 1    
    76   38   39 2    
    77   38   40 1    
    78   40   41 1    
    79   40   42 1    
    80   40  102 1    
    81   41  103 1    
    82   41  104 1    
    83   41  105 1    
    84   42   43 am   BACKBONE|DICT|INTERRES
    85   42  106 1    
    86   43   44 2    
    87   43   45 1    
    88   45   46 1    
    89   45   49 1    
    90   45  107 1    
    91   46   47 1    
    92   46  108 1    
    93   46  109 1    
    94   47   48 1    
    95   48  110 1    
    96   48  111 1    
    97   49   50 am   BACKBONE|DICT|INTERRES
    98   49  112 1    
    99   50   51 2    
   100   50   52 1    
   101   52   53 1    
   102   52   54 1    
   103   52  113 1    
   104   53  114 1    
   105   53  115 1    
   106   53  116 1    
   107   54   55 am   BACKBONE|DICT|INTERRES
   108   54  117 1    
   109   55   56 2    
   110   55   57 1    
   111   57   58 1    
   112   57   59 1    
   113   57  118 1    
   114   58  119 1    
   115   58  120 1    
   116   58  121 1    
   117   59   60 am   BACKBONE|DICT|INTERRES
   118   59  122 1    
   119   60   61 2    
   120   60   62 1    
   121   62   63 1    
   122   62   64 1    
   123   62  123 1    
   124   63  124 1    
   125   63  125 1    
   126   63  126 1    
   127   64   65 am   BACKBONE|DICT|INTERRES
   128   64  127 1    
   129   65   66 2    
@<TRIPOS>SUBSTRUCTURE
     1 UNK         1 GROUP             0       ****    0 ROOT    
