@<TRIPOS>MOLECULE
3R134
127   129    1
SMALL
USER_CHARGES


@<TRIPOS>ATOM
      1 CA         38.4373  -44.8356  -49.7313 C.3       0 UNK        -0.1968 
      2 C          37.8742  -44.7457  -51.1421 C.2       0 UNK         0.4852 
      3 O          38.6424  -44.6634  -52.1015 O.2       0 UNK        -0.5359 
      4 N          36.5398  -44.7606  -51.2746 N.am      1 UNK        -0.4300 
      5 CA         35.8225  -44.6970  -52.5559 C.3       1 UNK         0.0863 
      6 C6         34.3469  -44.2659  -52.3482 C.3       11 UNK        -0.0953 
      7 S7         33.7093  -43.2798  -53.7445 S.3       11 UNK        -0.2369 
      8 C8         32.4900  -44.4105  -54.4795 C.3       11 UNK         0.0226 
      9 C9         31.0863  -44.1741  -53.9348 C.ar      11 UNK        -0.0699 
     10 C10        30.7314  -44.6431  -52.6678 C.ar      11 UNK        -0.0804 
     11 C11        29.4361  -44.4592  -52.1765 C.ar      11 UNK        -0.0871 
     12 C12        28.4814  -43.8173  -52.9710 C.ar      11 UNK        -0.1008 
     13 C13        28.8168  -43.3593  -54.2491 C.ar      11 UNK        -0.0735 
     14 C14        30.1262  -43.5192  -54.7142 C.ar      11 UNK        -0.0945 
     15 C15        27.7653  -42.7000  -55.1307 C.3       11 UNK         0.0169 
     16 S16        26.5073  -43.9052  -55.6726 S.3       11 UNK        -0.2669 
     17 C17        26.2617  -43.4824  -57.4375 C.3       11 UNK        -0.0850 
     18 CA         26.1760  -44.7360  -58.3623 C.3       10 UNK         0.0855 
     19 C          25.8944  -44.3661  -59.8503 C.2       10 UNK         0.5543 
     20 N          26.4313  -45.0909  -60.8248 N.am      10 UNK        -0.7343 
     21 O          25.1523  -43.4272  -60.1285 O.2       10 UNK        -0.5027 
     22 N          27.2868  -45.6838  -58.1629 N.am      10 UNK        -0.4495 
     23 C          28.5872  -45.4243  -58.3510 C.2       10 UNK         0.4903 
     24 O          29.0283  -44.3555  -58.7736 O.2       10 UNK        -0.4860 
     25 CA         29.5745  -46.5389  -57.9733 C.3       9 UNK         0.0227 
     26 CB         30.1209  -46.2778  -56.5671 C.3       9 UNK        -0.1964 
     27 N          29.0032  -47.8845  -58.0014 N.am      9 UNK        -0.4231 
     28 C          28.7054  -48.5601  -59.1182 C.2       9 UNK         0.5014 
     29 O          28.7686  -48.0781  -60.2497 O.2       9 UNK        -0.5270 
     30 CA         28.2746  -50.0191  -58.9425 C.3       8 UNK         0.0284 
     31 CB         29.4894  -50.9078  -58.6226 C.3       8 UNK        -0.1977 
     32 N          27.2709  -50.1521  -57.8842 N.am      8 UNK        -0.4342 
     33 C          26.1042  -50.7922  -58.0323 C.2       8 UNK         0.5039 
     34 O          25.7543  -51.3610  -59.0679 O.2       8 UNK        -0.5547 
     35 CA         25.1591  -50.8128  -56.8214 C.3       7 UNK         0.0281 
     36 CB         25.5307  -51.9624  -55.8708 C.3       7 UNK        -0.1963 
     37 N          25.1286  -49.5592  -56.0683 N.am      7 UNK        -0.4444 
     38 C          24.6985  -48.3730  -56.5136 C.2       7 UNK         0.5104 
     39 O          24.3193  -48.1689  -57.6663 O.2       7 UNK        -0.5100 
     40 CA         24.6869  -47.2076  -55.5045 C.3       6 UNK         0.0396 
     41 CB         23.4254  -47.2526  -54.6209 C.3       6 UNK        -0.1801 
     42 N          25.9096  -47.0758  -54.6966 N.am      6 UNK        -0.4747 
     43 C          26.3984  -47.9242  -53.7807 C.2       6 UNK         0.5012 
     44 O          25.8464  -48.9779  -53.4532 O.2       6 UNK        -0.5003 
     45 CA         27.7418  -47.5532  -53.1273 C.3       5 UNK         0.0782 
     46 C46        27.4966  -47.1378  -51.6533 C.3       11 UNK        -0.0868 
     47 S47        29.0251  -46.7788  -50.7248 S.3       11 UNK        -0.2515 
     48 C48        29.0784  -44.9611  -50.7864 C.3       11 UNK         0.0199 
     49 N          28.7081  -48.6515  -53.2377 N.am      5 UNK        -0.4607 
     50 C          29.0952  -49.2723  -54.3596 C.2       4 UNK         0.5031 
     51 O          28.6608  -49.0249  -55.4896 O.2       4 UNK        -0.5119 
     52 CA         30.1438  -50.3807  -54.1871 C.3       4 UNK         0.0263 
     53 CB         29.5697  -51.7391  -54.6236 C.3       4 UNK        -0.1967 
     54 N          31.3671  -50.0978  -54.9417 N.am      4 UNK        -0.4237 
     55 C          32.2295  -49.1114  -54.6578 C.2       3 UNK         0.4908 
     56 O          32.0708  -48.2963  -53.7460 O.2       3 UNK        -0.5102 
     57 CA         33.4782  -49.0198  -55.5534 C.3       3 UNK         0.0241 
     58 CB         33.2330  -48.1087  -56.7668 C.3       3 UNK        -0.1971 
     59 N          34.6371  -48.5198  -54.8122 N.am      3 UNK        -0.4139 
     60 C          35.3070  -49.2064  -53.8806 C.2       2 UNK         0.5016 
     61 O          35.0499  -50.3730  -53.5786 O.2       2 UNK        -0.5319 
     62 CA         36.4707  -48.4927  -53.1679 C.3       2 UNK         0.0286 
     63 CB         37.7463  -48.5181  -54.0330 C.3       2 UNK        -0.1963 
     64 N          36.1859  -47.1335  -52.6788 N.am      2 UNK        -0.4790 
     65 C          35.9377  -46.0088  -53.3707 C.2       1 UNK         0.5024 
     66 O          35.8183  -45.9734  -54.5963 O.2       1 UNK        -0.4888 
     67 H67        37.6503  -44.8988  -48.9799 H         1 UNK         0.0892 
     68 H68        39.0692  -45.7182  -49.6353 H         1 UNK         0.0892 
     69 H69        39.0437  -43.9570  -49.5131 H         1 UNK         0.0892 
     70 H70        35.9621  -44.8180  -50.4474 H         1 UNK         0.3107 
     71 H71        36.3220  -43.9246  -53.1457 H         1 UNK         0.0773 
     72 H72        33.7075  -45.1255  -52.1443 H         1 UNK         0.0680 
     73 H73        34.2606  -43.6236  -51.4703 H         1 UNK         0.0680 
     74 H74        32.7852  -45.4490  -54.3205 H         1 UNK         0.0650 
     75 H75        32.5079  -44.2562  -55.5587 H         1 UNK         0.0650 
     76 H76        31.4583  -45.1632  -52.0612 H         1 UNK         0.1397 
     77 H77        27.4721  -43.6850  -52.6052 H         1 UNK         0.1363 
     78 H78        30.3902  -43.1613  -55.7000 H         1 UNK         0.1355 
     79 H79        27.2748  -41.8980  -54.5775 H         1 UNK         0.0707 
     80 H80        28.2423  -42.2291  -55.9908 H         1 UNK         0.0707 
     81 H81        25.3430  -42.8976  -57.5091 H         1 UNK         0.1034 
     82 H82        27.0585  -42.8230  -57.7829 H         1 UNK         0.1034 
     83 H83        25.2853  -45.2869  -58.0623 H         1 UNK         0.0482 
     84 H84        27.0422  -45.8637  -60.6079 H         1 UNK         0.3460 
     85 H85        26.2363  -44.8531  -61.7844 H         1 UNK         0.3460 
     86 H86        27.0283  -46.6056  -57.8467 H         1 UNK         0.2989 
     87 H87        30.4077  -46.5120  -58.6787 H         1 UNK         0.0559 
     88 H88        30.7857  -45.4177  -56.5891 H         1 UNK         0.0848 
     89 H89        30.6896  -47.1198  -56.1815 H         1 UNK         0.0848 
     90 H90        29.3242  -46.0709  -55.8512 H         1 UNK         0.0848 
     91 H91        28.9204  -48.3509  -57.0987 H         1 UNK         0.3144 
     92 H92        27.8632  -50.3432  -59.9009 H         1 UNK         0.0727 
     93 H93        29.1996  -51.9544  -58.5286 H         1 UNK         0.0790 
     94 H94        29.9772  -50.6096  -57.6945 H         1 UNK         0.0790 
     95 H95        30.2353  -50.8476  -59.4164 H         1 UNK         0.0790 
     96 H96        27.4854  -49.7280  -56.9870 H         1 UNK         0.3215 
     97 H97        24.1496  -50.9924  -57.1976 H         1 UNK         0.0863 
     98 H98        24.8071  -52.0572  -55.0610 H         1 UNK         0.0808 
     99 H99        26.5147  -51.8141  -55.4246 H         1 UNK         0.0808 
    100 H100       25.5513  -52.9166  -56.3994 H         1 UNK         0.0808 
    101 H101       25.4167  -49.5961  -55.0919 H         1 UNK         0.3118 
    102 H102       24.6259  -46.2903  -56.0893 H         1 UNK         0.0546 
    103 H103       23.3844  -48.1511  -54.0049 H         1 UNK         0.0828 
    104 H104       22.5230  -47.2416  -55.2336 H         1 UNK         0.0828 
    105 H105       23.3761  -46.3889  -53.9580 H         1 UNK         0.0828 
    106 H106       26.4379  -46.2341  -54.8921 H         1 UNK         0.3005 
    107 H107       28.1716  -46.7034  -53.6612 H         1 UNK         0.1257 
    108 H108       26.9787  -47.9345  -51.1148 H         1 UNK         0.0775 
    109 H109       26.8364  -46.2695  -51.6066 H         1 UNK         0.0775 
    110 H110       28.1250  -44.5507  -50.4499 H         1 UNK         0.0840 
    111 H111       29.8276  -44.6075  -50.0766 H         1 UNK         0.0840 
    112 H112       29.1380  -48.9225  -52.3657 H         1 UNK         0.2987 
    113 H113       30.4153  -50.4540  -53.1316 H         1 UNK         0.0785 
    114 H114       30.2922  -52.5422  -54.4775 H         1 UNK         0.0798 
    115 H115       29.2727  -51.7409  -55.6726 H         1 UNK         0.0798 
    116 H116       28.6854  -51.9917  -54.0370 H         1 UNK         0.0798 
    117 H117       31.5634  -50.7066  -55.7224 H         1 UNK         0.3079 
    118 H118       33.7172  -50.0214  -55.9176 H         1 UNK         0.0794 
    119 H119       32.3690  -48.4414  -57.3438 H         1 UNK         0.0786 
    120 H120       34.0896  -48.1131  -57.4411 H         1 UNK         0.0786 
    121 H121       33.0559  -47.0757  -56.4652 H         1 UNK         0.0786 
    122 H122       34.9121  -47.5527  -54.9624 H         1 UNK         0.3032 
    123 H123       36.6809  -49.0822  -52.2734 H         1 UNK         0.1094 
    124 H124       38.5971  -48.0982  -53.4961 H         1 UNK         0.0794 
    125 H125       38.0094  -49.5403  -54.3082 H         1 UNK         0.0794 
    126 H126       37.6248  -47.9557  -54.9592 H         1 UNK         0.0794 
    127 H127       36.2257  -47.0361  -51.6737 H         1 UNK         0.3016 
@<TRIPOS>BOND
     1    1    2 1    
     2    1   67 1    
     3    1   68 1    
     4    1   69 1    
     5    2    3 2    
     6    2    4 am   BACKBONE|DICT|INTERRES
     7    4    5 1    
     8    4   70 1    
     9    5    6 1    
    10    5   65 1    
    11    5   71 1    
    12    6    7 1    
    13    6   72 1    
    14    6   73 1    
    15    7    8 1    
    16    8    9 1    
    17    8   74 1    
    18    8   75 1    
    19    9   10 ar   
    20    9   14 ar   
    21   10   11 ar   
    22   10   76 1    
    23   11   12 ar   
    24   11   48 1    
    25   12   13 ar   
    26   12   77 1    
    27   13   14 ar   
    28   13   15 1    
    29   14   78 1    
    30   15   16 1    
    31   15   79 1    
    32   15   80 1    
    33   16   17 1    
    34   17   18 1    
    35   17   81 1    
    36   17   82 1    
    37   18   19 1    
    38   18   22 1    
    39   18   83 1    
    40   19   20 am   BACKBONE|DICT|INTERRES
    41   19   21 2    
    42   20   84 1    
    43   20   85 1    
    44   22   23 am   BACKBONE|DICT|INTERRES
    45   22   86 1    
    46   23   24 2    
    47   23   25 1    
    48   25   26 1    
    49   25   27 1    
    50   25   87 1    
    51   26   88 1    
    52   26   89 1    
    53   26   90 1    
    54   27   28 am   BACKBONE|DICT|INTERRES
    55   27   91 1    
    56   28   29 2    
    57   28   30 1    
    58   30   31 1    
    59   30   32 1    
    60   30   92 1    
    61   31   93 1    
    62   31   94 1    
    63   31   95 1    
    64   32   33 am   BACKBONE|DICT|INTERRES
    65   32   96 1    
    66   33   34 2    
    67   33   35 1    
    68   35   36 1    
    69   35   37 1    
    70   35   97 1    
    71   36   98 1    
    72   36   99 1    
    73   36  100 1    
    74   37   38 am   BACKBONE|DICT|INTERRES
    75   37  101 1    
    76   38   39 2    
    77   38   40 1    
    78   40   41 1    
    79   40   42 1    
    80   40  102 1    
    81   41  103 1    
    82   41  104 1    
    83   41  105 1    
    84   42   43 am   BACKBONE|DICT|INTERRES
    85   42  106 1    
    86   43   44 2    
    87   43   45 1    
    88   45   46 1    
    89   45   49 1    
    90   45  107 1    
    91   46   47 1    
    92   46  108 1    
    93   46  109 1    
    94   47   48 1    
    95   48  110 1    
    96   48  111 1    
    97   49   50 am   BACKBONE|DICT|INTERRES
    98   49  112 1    
    99   50   51 2    
   100   50   52 1    
   101   52   53 1    
   102   52   54 1    
   103   52  113 1    
   104   53  114 1    
   105   53  115 1    
   106   53  116 1    
   107   54   55 am   BACKBONE|DICT|INTERRES
   108   54  117 1    
   109   55   56 2    
   110   55   57 1    
   111   57   58 1    
   112   57   59 1    
   113   57  118 1    
   114   58  119 1    
   115   58  120 1    
   116   58  121 1    
   117   59   60 am   BACKBONE|DICT|INTERRES
   118   59  122 1    
   119   60   61 2    
   120   60   62 1    
   121   62   63 1    
   122   62   64 1    
   123   62  123 1    
   124   63  124 1    
   125   63  125 1    
   126   63  126 1    
   127   64   65 am   BACKBONE|DICT|INTERRES
   128   64  127 1    
   129   65   66 2    
@<TRIPOS>SUBSTRUCTURE
     1 UNK         1 GROUP             0       ****    0 ROOT    
