@<TRIPOS>MOLECULE
3R134
127   129    1
SMALL
USER_CHARGES


@<TRIPOS>ATOM
      1 CA         38.1827  -42.8615  -51.8610 C.3       0 UNK        -0.1968 
      2 C          38.0309  -44.2068  -52.5559 C.2       0 UNK         0.4852 
      3 O          38.9401  -45.0359  -52.4887 O.2       0 UNK        -0.5359 
      4 N          36.8945  -44.4246  -53.2294 N.am      1 UNK        -0.4300 
      5 CA         36.5322  -45.6778  -53.8965 C.3       1 UNK         0.0863 
      6 C6         35.3690  -45.4916  -54.9096 C.3       11 UNK        -0.0953 
      7 S7         33.9638  -44.4974  -54.2912 S.3       11 UNK        -0.2369 
      8 C8         32.5314  -45.4990  -54.7932 C.3       11 UNK         0.0226 
      9 C9         31.2639  -44.6588  -54.7676 C.ar      11 UNK        -0.0699 
     10 C10        30.4612  -44.6077  -53.6239 C.ar      11 UNK        -0.0804 
     11 C11        29.3104  -43.8084  -53.5969 C.ar      11 UNK        -0.0871 
     12 C12        28.9748  -43.0525  -54.7260 C.ar      11 UNK        -0.1008 
     13 C13        29.7750  -43.0912  -55.8716 C.ar      11 UNK        -0.0735 
     14 C14        30.9124  -43.9020  -55.8878 C.ar      11 UNK        -0.0945 
     15 C15        29.4508  -42.2237  -57.0785 C.3       11 UNK         0.0169 
     16 S16        28.4111  -43.1009  -58.2860 S.3       11 UNK        -0.2669 
     17 C17        26.7225  -42.6572  -57.7436 C.3       11 UNK        -0.0850 
     18 CA         26.0023  -43.7821  -56.9451 C.3       10 UNK         0.0855 
     19 C          24.6098  -43.3378  -56.4056 C.2       10 UNK         0.5543 
     20 N          23.6230  -44.2218  -56.3175 N.am      10 UNK        -0.7343 
     21 O          24.4263  -42.1827  -56.0293 O.2       10 UNK        -0.5027 
     22 N          26.0000  -45.0894  -57.6212 N.am      10 UNK        -0.4495 
     23 C          25.5070  -45.3875  -58.8302 C.2       10 UNK         0.4903 
     24 O          24.9727  -44.5708  -59.5821 O.2       10 UNK        -0.4860 
     25 CA         25.6155  -46.8682  -59.2473 C.3       9 UNK         0.0227 
     26 CB         25.4099  -47.0978  -60.7599 C.3       9 UNK        -0.1964 
     27 N          26.8523  -47.4948  -58.7632 N.am      9 UNK        -0.4231 
     28 C          28.1156  -47.2312  -59.1339 C.2       9 UNK         0.5014 
     29 O          28.4242  -46.4713  -60.0524 O.2       9 UNK        -0.5270 
     30 CA         29.2385  -47.9264  -58.3365 C.3       8 UNK         0.0284 
     31 CB         29.8936  -46.9324  -57.3636 C.3       8 UNK        -0.1977 
     32 N          28.7895  -49.0988  -57.5801 N.am      8 UNK        -0.4342 
     33 C          28.4078  -50.2646  -58.1200 C.2       8 UNK         0.5039 
     34 O          28.4571  -50.5142  -59.3247 O.2       8 UNK        -0.5547 
     35 CA         27.8386  -51.3134  -57.1520 C.3       7 UNK         0.0281 
     36 CB         28.9677  -52.1188  -56.4869 C.3       7 UNK        -0.1963 
     37 N          26.9906  -50.6979  -56.1266 N.am      7 UNK        -0.4444 
     38 C          25.7399  -50.2632  -56.3405 C.2       7 UNK         0.5104 
     39 O          25.1502  -50.3774  -57.4145 O.2       7 UNK        -0.5100 
     40 CA         25.0302  -49.5612  -55.1678 C.3       6 UNK         0.0396 
     41 CB         24.2803  -50.5868  -54.3034 C.3       6 UNK        -0.1801 
     42 N          25.9392  -48.7835  -54.3217 N.am      6 UNK        -0.4747 
     43 C          26.5797  -47.6716  -54.7132 C.2       6 UNK         0.5012 
     44 O          26.4406  -47.1621  -55.8230 O.2       6 UNK        -0.5003 
     45 CA         27.5938  -47.0649  -53.7238 C.3       5 UNK         0.0782 
     46 C46        26.9056  -46.0253  -52.8069 C.3       11 UNK        -0.0868 
     47 S47        28.0476  -45.3043  -51.5801 S.3       11 UNK        -0.2515 
     48 C48        28.4615  -43.6965  -52.3334 C.3       11 UNK         0.0199 
     49 N          28.3226  -48.0966  -52.9725 N.am      5 UNK        -0.4607 
     50 C          29.1061  -49.0222  -53.5361 C.2       4 UNK         0.5031 
     51 O          29.2426  -49.1483  -54.7557 O.2       4 UNK        -0.5119 
     52 CA         29.8009  -50.0131  -52.5913 C.3       4 UNK         0.0263 
     53 CB         28.9100  -51.2459  -52.3660 C.3       4 UNK        -0.1967 
     54 N          31.0783  -50.4407  -53.1608 N.am      4 UNK        -0.4237 
     55 C          32.1579  -49.6540  -53.2383 C.2       3 UNK         0.4908 
     56 O          32.2453  -48.5499  -52.6959 O.2       3 UNK        -0.5102 
     57 CA         33.3019  -50.1710  -54.1252 C.3       3 UNK         0.0241 
     58 CB         33.0374  -49.7944  -55.5941 C.3       3 UNK        -0.1971 
     59 N          34.5993  -49.6276  -53.7237 N.am      3 UNK        -0.4139 
     60 C          35.2465  -49.9292  -52.5897 C.2       2 UNK         0.5016 
     61 O          34.8495  -50.7649  -51.7758 O.2       2 UNK        -0.5319 
     62 CA         36.5749  -49.1970  -52.3249 C.3       2 UNK         0.0286 
     63 CB         37.7647  -50.1445  -52.5548 C.3       2 UNK        -0.1963 
     64 N          36.7519  -48.0028  -53.1596 N.am      2 UNK        -0.4790 
     65 C          36.2451  -46.7958  -52.8725 C.2       1 UNK         0.5024 
     66 O          35.5792  -46.5543  -51.8630 O.2       1 UNK        -0.4888 
     67 H67        37.3147  -42.2216  -52.0176 H         1 UNK         0.0892 
     68 H68        38.3082  -43.0056  -50.7885 H         1 UNK         0.0892 
     69 H69        39.0607  -42.3399  -52.2403 H         1 UNK         0.0892 
     70 H70        36.1663  -43.7240  -53.2256 H         1 UNK         0.3107 
     71 H71        37.4067  -45.9869  -54.4739 H         1 UNK         0.0773 
     72 H72        35.7505  -44.9778  -55.7934 H         1 UNK         0.0680 
     73 H73        35.0123  -46.4577  -55.2716 H         1 UNK         0.0680 
     74 H74        32.4374  -46.3587  -54.1297 H         1 UNK         0.0650 
     75 H75        32.6899  -45.8939  -55.7979 H         1 UNK         0.0650 
     76 H76        30.7421  -45.1794  -52.7496 H         1 UNK         0.1397 
     77 H77        28.1031  -42.4125  -54.7082 H         1 UNK         0.1363 
     78 H78        31.5393  -43.9277  -56.7687 H         1 UNK         0.1355 
     79 H79        28.9796  -41.2906  -56.7669 H         1 UNK         0.0707 
     80 H80        30.3780  -41.9324  -57.5748 H         1 UNK         0.0707 
     81 H81        26.7678  -41.7418  -57.1518 H         1 UNK         0.1034 
     82 H82        26.1432  -42.3970  -58.6305 H         1 UNK         0.1034 
     83 H83        26.5905  -43.9518  -56.0435 H         1 UNK         0.0482 
     84 H84        23.7680  -45.1753  -56.6076 H         1 UNK         0.3460 
     85 H85        22.7275  -43.9307  -55.9581 H         1 UNK         0.3460 
     86 H86        26.3437  -45.8602  -57.0522 H         1 UNK         0.2989 
     87 H87        24.8055  -47.3838  -58.7294 H         1 UNK         0.0559 
     88 H88        25.5023  -48.1529  -61.0174 H         1 UNK         0.0848 
     89 H89        26.1310  -46.5405  -61.3583 H         1 UNK         0.0848 
     90 H90        24.4158  -46.7744  -61.0707 H         1 UNK         0.0848 
     91 H91        26.7370  -48.1042  -57.9643 H         1 UNK         0.3144 
     92 H92        29.9947  -48.2561  -59.0519 H         1 UNK         0.0727 
     93 H93        29.1751  -46.5400  -56.6432 H         1 UNK         0.0790 
     94 H94        30.3081  -46.0788  -57.9014 H         1 UNK         0.0790 
     95 H95        30.7088  -47.3946  -56.8064 H         1 UNK         0.0790 
     96 H96        28.7983  -49.0194  -56.5646 H         1 UNK         0.3215 
     97 H97        27.2279  -52.0077  -57.7340 H         1 UNK         0.0863 
     98 H98        28.5699  -52.8865  -55.8232 H         1 UNK         0.0808 
     99 H99        29.6369  -51.4847  -55.9058 H         1 UNK         0.0808 
    100 H100       29.5750  -52.6249  -57.2385 H         1 UNK         0.0808 
    101 H101       27.4236  -50.5016  -55.2355 H         1 UNK         0.3118 
    102 H102       24.2955  -48.8729  -55.5916 H         1 UNK         0.0546 
    103 H103       24.9617  -51.2950  -53.8303 H         1 UNK         0.0828 
    104 H104       23.5777  -51.1643  -54.9059 H         1 UNK         0.0828 
    105 H105       23.7036  -50.0983  -53.5179 H         1 UNK         0.0828 
    106 H106       26.1142  -49.1342  -53.3910 H         1 UNK         0.3005 
    107 H107       28.3339  -46.5352  -54.3279 H         1 UNK         0.1257 
    108 H108       26.0815  -46.4850  -52.2580 H         1 UNK         0.0775 
    109 H109       26.4631  -45.2235  -53.4018 H         1 UNK         0.0775 
    110 H110       27.5368  -43.1512  -52.5294 H         1 UNK         0.0840 
    111 H111       29.0135  -43.1048  -51.6021 H         1 UNK         0.0840 
    112 H112       28.2581  -48.0419  -51.9661 H         1 UNK         0.2987 
    113 H113       29.9864  -49.5254  -51.6317 H         1 UNK         0.0785 
    114 H114       28.6916  -51.7667  -53.2993 H         1 UNK         0.0798 
    115 H115       27.9559  -50.9643  -51.9184 H         1 UNK         0.0798 
    116 H116       29.3838  -51.9575  -51.6895 H         1 UNK         0.0798 
    117 H117       31.0760  -51.3146  -53.6657 H         1 UNK         0.3079 
    118 H118       33.3479  -51.2590  -54.0401 H         1 UNK         0.0794 
    119 H119       32.0841  -50.1981  -55.9392 H         1 UNK         0.0786 
    120 H120       33.8116  -50.1891  -56.2525 H         1 UNK         0.0786 
    121 H121       32.9968  -48.7129  -55.7318 H         1 UNK         0.0786 
    122 H122       34.9944  -48.9118  -54.3131 H         1 UNK         0.3032 
    123 H123       36.5745  -48.9005  -51.2730 H         1 UNK         0.1094 
    124 H124       38.7106  -49.6602  -52.3111 H         1 UNK         0.0794 
    125 H125       37.6857  -51.0308  -51.9235 H         1 UNK         0.0794 
    126 H126       37.8174  -50.4859  -53.5895 H         1 UNK         0.0794 
    127 H127       37.3085  -48.1153  -53.9960 H         1 UNK         0.3016 
@<TRIPOS>BOND
     1    1    2 1    
     2    1   67 1    
     3    1   68 1    
     4    1   69 1    
     5    2    3 2    
     6    2    4 am   BACKBONE|DICT|INTERRES
     7    4    5 1    
     8    4   70 1    
     9    5    6 1    
    10    5   65 1    
    11    5   71 1    
    12    6    7 1    
    13    6   72 1    
    14    6   73 1    
    15    7    8 1    
    16    8    9 1    
    17    8   74 1    
    18    8   75 1    
    19    9   10 ar   
    20    9   14 ar   
    21   10   11 ar   
    22   10   76 1    
    23   11   12 ar   
    24   11   48 1    
    25   12   13 ar   
    26   12   77 1    
    27   13   14 ar   
    28   13   15 1    
    29   14   78 1    
    30   15   16 1    
    31   15   79 1    
    32   15   80 1    
    33   16   17 1    
    34   17   18 1    
    35   17   81 1    
    36   17   82 1    
    37   18   19 1    
    38   18   22 1    
    39   18   83 1    
    40   19   20 am   BACKBONE|DICT|INTERRES
    41   19   21 2    
    42   20   84 1    
    43   20   85 1    
    44   22   23 am   BACKBONE|DICT|INTERRES
    45   22   86 1    
    46   23   24 2    
    47   23   25 1    
    48   25   26 1    
    49   25   27 1    
    50   25   87 1    
    51   26   88 1    
    52   26   89 1    
    53   26   90 1    
    54   27   28 am   BACKBONE|DICT|INTERRES
    55   27   91 1    
    56   28   29 2    
    57   28   30 1    
    58   30   31 1    
    59   30   32 1    
    60   30   92 1    
    61   31   93 1    
    62   31   94 1    
    63   31   95 1    
    64   32   33 am   BACKBONE|DICT|INTERRES
    65   32   96 1    
    66   33   34 2    
    67   33   35 1    
    68   35   36 1    
    69   35   37 1    
    70   35   97 1    
    71   36   98 1    
    72   36   99 1    
    73   36  100 1    
    74   37   38 am   BACKBONE|DICT|INTERRES
    75   37  101 1    
    76   38   39 2    
    77   38   40 1    
    78   40   41 1    
    79   40   42 1    
    80   40  102 1    
    81   41  103 1    
    82   41  104 1    
    83   41  105 1    
    84   42   43 am   BACKBONE|DICT|INTERRES
    85   42  106 1    
    86   43   44 2    
    87   43   45 1    
    88   45   46 1    
    89   45   49 1    
    90   45  107 1    
    91   46   47 1    
    92   46  108 1    
    93   46  109 1    
    94   47   48 1    
    95   48  110 1    
    96   48  111 1    
    97   49   50 am   BACKBONE|DICT|INTERRES
    98   49  112 1    
    99   50   51 2    
   100   50   52 1    
   101   52   53 1    
   102   52   54 1    
   103   52  113 1    
   104   53  114 1    
   105   53  115 1    
   106   53  116 1    
   107   54   55 am   BACKBONE|DICT|INTERRES
   108   54  117 1    
   109   55   56 2    
   110   55   57 1    
   111   57   58 1    
   112   57   59 1    
   113   57  118 1    
   114   58  119 1    
   115   58  120 1    
   116   58  121 1    
   117   59   60 am   BACKBONE|DICT|INTERRES
   118   59  122 1    
   119   60   61 2    
   120   60   62 1    
   121   62   63 1    
   122   62   64 1    
   123   62  123 1    
   124   63  124 1    
   125   63  125 1    
   126   63  126 1    
   127   64   65 am   BACKBONE|DICT|INTERRES
   128   64  127 1    
   129   65   66 2    
@<TRIPOS>SUBSTRUCTURE
     1 UNK         1 GROUP             0       ****    0 ROOT    
