@<TRIPOS>MOLECULE
3R134
127   129    1
SMALL
USER_CHARGES


@<TRIPOS>ATOM
      1 CA         36.7764  -42.4582  -52.5659 C.3       0 UNK        -0.1968 
      2 C          36.0779  -43.7919  -52.7830 C.2       0 UNK         0.4852 
      3 O          35.1156  -44.0960  -52.0758 O.2       0 UNK        -0.5359 
      4 N          36.5558  -44.5848  -53.7539 N.am      1 UNK        -0.4300 
      5 CA         36.0740  -45.9118  -54.1780 C.3       1 UNK         0.0863 
      6 C6         34.6003  -45.9428  -54.6676 C.3       11 UNK        -0.0953 
      7 S7         34.2696  -44.8087  -56.0608 S.3       11 UNK        -0.2369 
      8 C8         33.3554  -43.4423  -55.2714 C.3       11 UNK         0.0226 
      9 C9         31.9298  -43.8249  -54.8995 C.ar      11 UNK        -0.0699 
     10 C10        31.6351  -44.2968  -53.6172 C.ar      11 UNK        -0.0804 
     11 C11        30.3266  -44.6397  -53.2666 C.ar      11 UNK        -0.0871 
     12 C12        29.2992  -44.4797  -54.2025 C.ar      11 UNK        -0.1008 
     13 C13        29.5785  -43.9849  -55.4809 C.ar      11 UNK        -0.0735 
     14 C14        30.8961  -43.6703  -55.8271 C.ar      11 UNK        -0.0945 
     15 C15        28.4597  -43.7794  -56.4886 C.3       11 UNK         0.0169 
     16 S16        27.6191  -42.1916  -56.2160 S.3       11 UNK        -0.2669 
     17 C17        26.7171  -41.9737  -57.7881 C.3       11 UNK        -0.0850 
     18 CA         25.3176  -42.6375  -57.7649 C.3       10 UNK         0.0855 
     19 C          24.4183  -42.0864  -58.9037 C.2       10 UNK         0.5543 
     20 N          23.6742  -41.0208  -58.6424 N.am      10 UNK        -0.7343 
     21 O          24.4190  -42.5862  -60.0273 O.2       10 UNK        -0.5027 
     22 N          25.4274  -44.0993  -57.8352 N.am      10 UNK        -0.4495 
     23 C          24.5015  -44.9590  -57.4061 C.2       10 UNK         0.4903 
     24 O          23.4827  -44.6153  -56.8052 O.2       10 UNK        -0.4860 
     25 CA         24.7298  -46.4587  -57.6720 C.3       9 UNK         0.0227 
     26 CB         23.8992  -46.9308  -58.8806 C.3       9 UNK        -0.1964 
     27 N          26.1269  -46.9029  -57.7959 N.am      9 UNK        -0.4231 
     28 C          27.0332  -46.6391  -58.7497 C.2       9 UNK         0.5014 
     29 O          26.8840  -45.7847  -59.6233 O.2       9 UNK        -0.5270 
     30 CA         28.3198  -47.4888  -58.7415 C.3       8 UNK         0.0284 
     31 CB         29.4212  -46.8359  -57.8930 C.3       8 UNK        -0.1977 
     32 N          28.0952  -48.8573  -58.2688 N.am      8 UNK        -0.4342 
     33 C          27.3567  -49.7784  -58.9060 C.2       8 UNK         0.5039 
     34 O          26.8442  -49.6062  -60.0125 O.2       8 UNK        -0.5547 
     35 CA         27.1318  -51.1087  -58.1720 C.3       7 UNK         0.0281 
     36 CB         28.3240  -52.0575  -58.3750 C.3       7 UNK        -0.1963 
     37 N          26.9012  -50.8951  -56.7417 N.am      7 UNK        -0.4444 
     38 C          25.7300  -50.5060  -56.2180 C.2       7 UNK         0.5104 
     39 O          24.7000  -50.3574  -56.8753 O.2       7 UNK        -0.5100 
     40 CA         25.6992  -50.2247  -54.7046 C.3       6 UNK         0.0396 
     41 CB         25.2987  -51.4911  -53.9317 C.3       6 UNK        -0.1801 
     42 N          26.9698  -49.7162  -54.1794 N.am      6 UNK        -0.4747 
     43 C          27.4812  -48.5085  -54.4619 C.2       6 UNK         0.5012 
     44 O          26.9270  -47.6873  -55.1907 O.2       6 UNK        -0.5003 
     45 CA         28.8642  -48.1800  -53.8645 C.3       5 UNK         0.0782 
     46 C46        28.6956  -47.5762  -52.4503 C.3       11 UNK        -0.0868 
     47 S47        30.2645  -46.9619  -51.7522 S.3       11 UNK        -0.2515 
     48 C48        30.0350  -45.1578  -51.8659 C.3       11 UNK         0.0199 
     49 N          29.7752  -49.3334  -53.8734 N.am      5 UNK        -0.4607 
     50 C          30.1490  -50.0164  -54.9649 C.2       4 UNK         0.5031 
     51 O          29.7183  -49.7708  -56.0929 O.2       4 UNK        -0.5119 
     52 CA         31.1130  -51.2025  -54.7627 C.3       4 UNK         0.0263 
     53 CB         31.9743  -51.4797  -56.0142 C.3       4 UNK        -0.1967 
     54 N          31.9531  -51.1091  -53.5594 N.am      4 UNK        -0.4237 
     55 C          32.9056  -50.1993  -53.3077 C.2       3 UNK         0.4908 
     56 O          33.1718  -49.2450  -54.0434 O.2       3 UNK        -0.5102 
     57 CA         33.7160  -50.4169  -52.0235 C.3       3 UNK         0.0241 
     58 CB         34.6213  -51.6607  -52.1513 C.3       3 UNK        -0.1971 
     59 N          34.5242  -49.2258  -51.7890 N.am      3 UNK        -0.4139 
     60 C          35.1947  -48.9116  -50.6770 C.2       2 UNK         0.5016 
     61 O          35.1806  -49.6078  -49.6603 O.2       2 UNK        -0.5319 
     62 CA         36.0024  -47.5967  -50.6666 C.3       2 UNK         0.0286 
     63 CB         37.4829  -47.8474  -50.3120 C.3       2 UNK        -0.1963 
     64 N          35.8890  -46.7690  -51.8785 N.am      2 UNK        -0.4790 
     65 C          36.3243  -47.0126  -53.1234 C.2       1 UNK         0.5024 
     66 O          36.8965  -48.0493  -53.4590 O.2       1 UNK        -0.4888 
     67 H67        36.0695  -41.6400  -52.7014 H         1 UNK         0.0892 
     68 H68        37.1714  -42.4032  -51.5519 H         1 UNK         0.0892 
     69 H69        37.6027  -42.3108  -53.2610 H         1 UNK         0.0892 
     70 H70        37.3619  -44.2614  -54.2706 H         1 UNK         0.3107 
     71 H71        36.6971  -46.1744  -55.0348 H         1 UNK         0.0773 
     72 H72        33.9168  -45.7435  -53.8456 H         1 UNK         0.0680 
     73 H73        34.3475  -46.9453  -55.0176 H         1 UNK         0.0680 
     74 H74        33.3353  -42.5991  -55.9634 H         1 UNK         0.0650 
     75 H75        33.8922  -43.0893  -54.3926 H         1 UNK         0.0650 
     76 H76        32.4255  -44.3960  -52.8856 H         1 UNK         0.1397 
     77 H77        28.2804  -44.7254  -53.9356 H         1 UNK         0.1363 
     78 H78        31.1167  -43.2903  -56.8153 H         1 UNK         0.1355 
     79 H79        28.8569  -43.8091  -57.5038 H         1 UNK         0.0707 
     80 H80        27.7379  -44.5928  -56.4071 H         1 UNK         0.0707 
     81 H81        26.6242  -40.8967  -57.9429 H         1 UNK         0.1034 
     82 H82        27.3143  -42.3407  -58.6250 H         1 UNK         0.1034 
     83 H83        24.8394  -42.3791  -56.8173 H         1 UNK         0.0482 
     84 H84        23.0940  -40.6368  -59.3721 H         1 UNK         0.3460 
     85 H85        23.6731  -40.5971  -57.7273 H         1 UNK         0.3460 
     86 H86        26.1590  -44.4737  -58.4308 H         1 UNK         0.2989 
     87 H87        24.3486  -46.9813  -56.7931 H         1 UNK         0.0559 
     88 H88        22.8418  -46.7015  -58.7419 H         1 UNK         0.0848 
     89 H89        23.9818  -48.0092  -59.0193 H         1 UNK         0.0848 
     90 H90        24.2170  -46.4474  -59.8051 H         1 UNK         0.0848 
     91 H91        26.4326  -47.5025  -57.0337 H         1 UNK         0.3144 
     92 H92        28.6783  -47.5516  -59.7711 H         1 UNK         0.0727 
     93 H93        29.1077  -46.6996  -56.8580 H         1 UNK         0.0790 
     94 H94        29.6915  -45.8587  -58.2927 H         1 UNK         0.0790 
     95 H95        30.3288  -47.4401  -57.8868 H         1 UNK         0.0790 
     96 H96        28.5541  -49.1230  -57.3994 H         1 UNK         0.3215 
     97 H97        26.2474  -51.5840  -58.6030 H         1 UNK         0.0863 
     98 H98        28.1629  -53.0119  -57.8736 H         1 UNK         0.0808 
     99 H99        29.2523  -51.6305  -57.9969 H         1 UNK         0.0808 
    100 H100       28.4736  -52.2693  -59.4345 H         1 UNK         0.0808 
    101 H101       27.7091  -50.9415  -56.1369 H         1 UNK         0.3118 
    102 H102       24.9351  -49.4644  -54.5280 H         1 UNK         0.0546 
    103 H103       26.0337  -52.2883  -54.0500 H         1 UNK         0.0828 
    104 H104       24.3413  -51.8766  -54.2853 H         1 UNK         0.0828 
    105 H105       25.1895  -51.2887  -52.8662 H         1 UNK         0.0828 
    106 H106       27.4942  -50.3296  -53.5718 H         1 UNK         0.3005 
    107 H107       29.3118  -47.4196  -54.5082 H         1 UNK         0.1257 
    108 H108       28.2929  -48.3224  -51.7628 H         1 UNK         0.0775 
    109 H109       27.9677  -46.7627  -52.4629 H         1 UNK         0.0775 
    110 H110       29.0271  -44.8818  -51.5522 H         1 UNK         0.0840 
    111 H111       30.7080  -44.6785  -51.1531 H         1 UNK         0.0840 
    112 H112       30.1847  -49.5824  -52.9855 H         1 UNK         0.2987 
    113 H113       30.4740  -52.0739  -54.6125 H         1 UNK         0.0785 
    114 H114       31.3527  -51.7249  -56.8752 H         1 UNK         0.0798 
    115 H115       32.6473  -52.3222  -55.8552 H         1 UNK         0.0798 
    116 H116       32.5784  -50.6146  -56.2894 H         1 UNK         0.0798 
    117 H117       31.8117  -51.8439  -52.8791 H         1 UNK         0.3079 
    118 H118       33.0220  -50.5420  -51.1898 H         1 UNK         0.0794 
    119 H119       35.1875  -51.8421  -51.2378 H         1 UNK         0.0786 
    120 H120       35.3355  -51.5519  -52.9687 H         1 UNK         0.0786 
    121 H121       34.0381  -52.5616  -52.3450 H         1 UNK         0.0786 
    122 H122       34.5573  -48.5960  -52.5816 H         1 UNK         0.3032 
    123 H123       35.5713  -46.9976  -49.8627 H         1 UNK         0.1094 
    124 H124       37.9734  -48.4904  -51.0433 H         1 UNK         0.0794 
    125 H125       38.0417  -46.9132  -50.2564 H         1 UNK         0.0794 
    126 H126       37.5752  -48.3359  -49.3411 H         1 UNK         0.0794 
    127 H127       35.4406  -45.8622  -51.7459 H         1 UNK         0.3016 
@<TRIPOS>BOND
     1    1    2 1    
     2    1   67 1    
     3    1   68 1    
     4    1   69 1    
     5    2    3 2    
     6    2    4 am   BACKBONE|DICT|INTERRES
     7    4    5 1    
     8    4   70 1    
     9    5    6 1    
    10    5   65 1    
    11    5   71 1    
    12    6    7 1    
    13    6   72 1    
    14    6   73 1    
    15    7    8 1    
    16    8    9 1    
    17    8   74 1    
    18    8   75 1    
    19    9   10 ar   
    20    9   14 ar   
    21   10   11 ar   
    22   10   76 1    
    23   11   12 ar   
    24   11   48 1    
    25   12   13 ar   
    26   12   77 1    
    27   13   14 ar   
    28   13   15 1    
    29   14   78 1    
    30   15   16 1    
    31   15   79 1    
    32   15   80 1    
    33   16   17 1    
    34   17   18 1    
    35   17   81 1    
    36   17   82 1    
    37   18   19 1    
    38   18   22 1    
    39   18   83 1    
    40   19   20 am   BACKBONE|DICT|INTERRES
    41   19   21 2    
    42   20   84 1    
    43   20   85 1    
    44   22   23 am   BACKBONE|DICT|INTERRES
    45   22   86 1    
    46   23   24 2    
    47   23   25 1    
    48   25   26 1    
    49   25   27 1    
    50   25   87 1    
    51   26   88 1    
    52   26   89 1    
    53   26   90 1    
    54   27   28 am   BACKBONE|DICT|INTERRES
    55   27   91 1    
    56   28   29 2    
    57   28   30 1    
    58   30   31 1    
    59   30   32 1    
    60   30   92 1    
    61   31   93 1    
    62   31   94 1    
    63   31   95 1    
    64   32   33 am   BACKBONE|DICT|INTERRES
    65   32   96 1    
    66   33   34 2    
    67   33   35 1    
    68   35   36 1    
    69   35   37 1    
    70   35   97 1    
    71   36   98 1    
    72   36   99 1    
    73   36  100 1    
    74   37   38 am   BACKBONE|DICT|INTERRES
    75   37  101 1    
    76   38   39 2    
    77   38   40 1    
    78   40   41 1    
    79   40   42 1    
    80   40  102 1    
    81   41  103 1    
    82   41  104 1    
    83   41  105 1    
    84   42   43 am   BACKBONE|DICT|INTERRES
    85   42  106 1    
    86   43   44 2    
    87   43   45 1    
    88   45   46 1    
    89   45   49 1    
    90   45  107 1    
    91   46   47 1    
    92   46  108 1    
    93   46  109 1    
    94   47   48 1    
    95   48  110 1    
    96   48  111 1    
    97   49   50 am   BACKBONE|DICT|INTERRES
    98   49  112 1    
    99   50   51 2    
   100   50   52 1    
   101   52   53 1    
   102   52   54 1    
   103   52  113 1    
   104   53  114 1    
   105   53  115 1    
   106   53  116 1    
   107   54   55 am   BACKBONE|DICT|INTERRES
   108   54  117 1    
   109   55   56 2    
   110   55   57 1    
   111   57   58 1    
   112   57   59 1    
   113   57  118 1    
   114   58  119 1    
   115   58  120 1    
   116   58  121 1    
   117   59   60 am   BACKBONE|DICT|INTERRES
   118   59  122 1    
   119   60   61 2    
   120   60   62 1    
   121   62   63 1    
   122   62   64 1    
   123   62  123 1    
   124   63  124 1    
   125   63  125 1    
   126   63  126 1    
   127   64   65 am   BACKBONE|DICT|INTERRES
   128   64  127 1    
   129   65   66 2    
@<TRIPOS>SUBSTRUCTURE
     1 UNK         1 GROUP             0       ****    0 ROOT    
