@<TRIPOS>MOLECULE
3R134
127   129    1
SMALL
USER_CHARGES


@<TRIPOS>ATOM
      1 CA         34.6442  -44.7505  -58.3928 C.3       0 UNK        -0.1968 
      2 C          34.1154  -44.5363  -56.9820 C.2       0 UNK         0.4852 
      3 O          33.4983  -43.5056  -56.7144 O.2       0 UNK        -0.5359 
      4 N          34.3418  -45.5079  -56.0915 N.am      1 UNK        -0.4300 
      5 CA         33.9000  -45.5216  -54.6988 C.3       1 UNK         0.0863 
      6 C6         34.6224  -44.4450  -53.8318 C.3       11 UNK        -0.0953 
      7 S7         33.9611  -44.2528  -52.1393 S.3       11 UNK        -0.2369 
      8 C8         32.7052  -42.9524  -52.3504 C.3       11 UNK         0.0226 
      9 C9         31.4017  -43.5116  -52.9001 C.ar      11 UNK        -0.0699 
     10 C10        30.5553  -44.2547  -52.0698 C.ar      11 UNK        -0.0804 
     11 C11        29.3507  -44.7667  -52.5596 C.ar      11 UNK        -0.0871 
     12 C12        28.9968  -44.5261  -53.8900 C.ar      11 UNK        -0.1008 
     13 C13        29.8347  -43.7913  -54.7318 C.ar      11 UNK        -0.0735 
     14 C14        31.0351  -43.2811  -54.2300 C.ar      11 UNK        -0.0945 
     15 C15        29.4553  -43.5806  -56.1907 C.3       11 UNK         0.0169 
     16 S16        28.6951  -41.9523  -56.4951 S.3       11 UNK        -0.2669 
     17 C17        27.0853  -42.0808  -55.6319 C.3       11 UNK        -0.0850 
     18 CA         25.8553  -42.3124  -56.5580 C.3       10 UNK         0.0855 
     19 C          25.5255  -41.0944  -57.4620 C.2       10 UNK         0.5543 
     20 N          25.1743  -39.9593  -56.8732 N.am      10 UNK        -0.7343 
     21 O          25.5774  -41.1673  -58.6896 O.2       10 UNK        -0.5027 
     22 N          25.9438  -43.5433  -57.3517 N.am      10 UNK        -0.4495 
     23 C          25.8802  -44.7932  -56.8840 C.2       10 UNK         0.4903 
     24 O          25.7654  -45.0666  -55.6869 O.2       10 UNK        -0.4860 
     25 CA         25.9388  -45.9171  -57.9365 C.3       9 UNK         0.0227 
     26 CB         26.9834  -45.6434  -59.0351 C.3       9 UNK        -0.1964 
     27 N          26.2545  -47.1944  -57.2971 N.am      9 UNK        -0.4231 
     28 C          25.3698  -48.1556  -57.0097 C.2       9 UNK         0.5014 
     29 O          24.1750  -48.1017  -57.3129 O.2       9 UNK        -0.5270 
     30 CA         25.9191  -49.3825  -56.2520 C.3       8 UNK         0.0284 
     31 CB         24.8692  -50.4988  -56.0677 C.3       8 UNK        -0.1977 
     32 N          27.1485  -49.9325  -56.8367 N.am      8 UNK        -0.4342 
     33 C          27.3455  -50.3695  -58.0898 C.2       8 UNK         0.5039 
     34 O          26.4841  -50.3713  -58.9717 O.2       8 UNK        -0.5547 
     35 CA         28.7613  -50.9025  -58.3869 C.3       7 UNK         0.0281 
     36 CB         28.9451  -51.3946  -59.8393 C.3       7 UNK        -0.1963 
     37 N          29.7953  -49.9311  -58.0087 N.am      7 UNK        -0.4444 
     38 C          30.0165  -48.7198  -58.5422 C.2       7 UNK         0.5104 
     39 O          29.4387  -48.2840  -59.5387 O.2       7 UNK        -0.5100 
     40 CA         31.0561  -47.8442  -57.8073 C.3       6 UNK         0.0396 
     41 CB         31.0274  -46.3756  -58.2715 C.3       6 UNK        -0.1801 
     42 N          30.9373  -47.9193  -56.3439 N.am      6 UNK        -0.4747 
     43 C          29.8421  -47.6531  -55.6123 C.2       6 UNK         0.5012 
     44 O          28.7847  -47.2477  -56.0963 O.2       6 UNK        -0.5003 
     45 CA         29.9438  -47.9513  -54.0988 C.3       5 UNK         0.0782 
     46 C46        28.5889  -47.8272  -53.3415 C.3       11 UNK        -0.0868 
     47 S47        28.8646  -47.3415  -51.6066 S.3       11 UNK        -0.2515 
     48 C48        28.4263  -45.5711  -51.6534 C.3       11 UNK         0.0199 
     49 N          30.6018  -49.2411  -53.8403 N.am      5 UNK        -0.4607 
     50 C          30.2016  -50.4399  -54.2973 C.2       4 UNK         0.5031 
     51 O          29.2189  -50.5946  -55.0230 O.2       4 UNK        -0.5119 
     52 CA         31.0416  -51.6798  -53.9414 C.3       4 UNK         0.0263 
     53 CB         31.8462  -52.1394  -55.1689 C.3       4 UNK        -0.1967 
     54 N          31.9616  -51.4619  -52.8268 N.am      4 UNK        -0.4237 
     55 C          31.6052  -51.3730  -51.5376 C.2       3 UNK         0.4908 
     56 O          30.4645  -51.5841  -51.1251 O.2       3 UNK        -0.5102 
     57 CA         32.7056  -50.9572  -50.5408 C.3       3 UNK         0.0241 
     58 CB         33.2562  -52.1885  -49.8025 C.3       3 UNK        -0.1971 
     59 N          33.8206  -50.2219  -51.1550 N.am      3 UNK        -0.4139 
     60 C          33.7072  -49.0380  -51.7747 C.2       2 UNK         0.5016 
     61 O          32.6413  -48.4242  -51.8609 O.2       2 UNK        -0.5319 
     62 CA         34.9912  -48.4714  -52.4127 C.3       2 UNK         0.0286 
     63 CB         35.6850  -49.4946  -53.3405 C.3       2 UNK        -0.1963 
     64 N          34.7640  -47.2024  -53.1174 N.am      2 UNK        -0.4790 
     65 C          34.0296  -46.9809  -54.2180 C.2       1 UNK         0.5024 
     66 O          33.4730  -47.8705  -54.8686 O.2       1 UNK        -0.4888 
     67 H67        35.1328  -45.7184  -58.5042 H         1 UNK         0.0892 
     68 H68        33.8267  -44.6995  -59.1115 H         1 UNK         0.0892 
     69 H69        35.3669  -43.9745  -58.6434 H         1 UNK         0.0892 
     70 H70        34.8105  -46.3559  -56.3829 H         1 UNK         0.3107 
     71 H71        32.8309  -45.3068  -54.6985 H         1 UNK         0.0773 
     72 H72        35.6896  -44.6631  -53.7650 H         1 UNK         0.0680 
     73 H73        34.5641  -43.4702  -54.3162 H         1 UNK         0.0680 
     74 H74        32.5133  -42.4940  -51.3792 H         1 UNK         0.0650 
     75 H75        33.0935  -42.1574  -52.9888 H         1 UNK         0.0650 
     76 H76        30.8392  -44.4388  -51.0424 H         1 UNK         0.1397 
     77 H77        28.0687  -44.9203  -54.2801 H         1 UNK         0.1363 
     78 H78        31.6881  -42.7146  -54.8802 H         1 UNK         0.1355 
     79 H79        30.3499  -43.6674  -56.8093 H         1 UNK         0.0707 
     80 H80        28.7802  -44.3684  -56.5250 H         1 UNK         0.0707 
     81 H81        26.9500  -41.1683  -55.0495 H         1 UNK         0.1034 
     82 H82        27.1267  -42.8717  -54.8865 H         1 UNK         0.1034 
     83 H83        24.9803  -42.4330  -55.9162 H         1 UNK         0.0482 
     84 H84        25.1152  -39.8852  -55.8697 H         1 UNK         0.3460 
     85 H85        24.9564  -39.1592  -57.4465 H         1 UNK         0.3460 
     86 H86        26.0125  -43.3786  -58.3475 H         1 UNK         0.2989 
     87 H87        24.9577  -45.9696  -58.4120 H         1 UNK         0.0559 
     88 H88        27.1295  -46.5172  -59.6710 H         1 UNK         0.0848 
     89 H89        27.9499  -45.3775  -58.6119 H         1 UNK         0.0848 
     90 H90        26.6744  -44.8256  -59.6866 H         1 UNK         0.0848 
     91 H91        27.2028  -47.2848  -56.9311 H         1 UNK         0.3144 
     92 H92        26.1933  -49.0232  -55.2590 H         1 UNK         0.0727 
     93 H93        25.2707  -51.3278  -55.4849 H         1 UNK         0.0790 
     94 H94        24.5294  -50.8949  -57.0253 H         1 UNK         0.0790 
     95 H95        23.9911  -50.1271  -55.5382 H         1 UNK         0.0790 
     96 H96        27.9330  -50.0157  -56.1905 H         1 UNK         0.3215 
     97 H97        28.9020  -51.7657  -57.7339 H         1 UNK         0.0863 
     98 H98        29.9530  -51.7745  -60.0055 H         1 UNK         0.0808 
     99 H99        28.7590  -50.6043  -60.5668 H         1 UNK         0.0808 
    100 H100       28.2515  -52.2060  -60.0627 H         1 UNK         0.0808 
    101 H101       30.2975  -50.1508  -57.1601 H         1 UNK         0.3118 
    102 H102       32.0368  -48.2518  -58.0562 H         1 UNK         0.0546 
    103 H103       30.0450  -45.9314  -58.1307 H         1 UNK         0.0828 
    104 H104       31.2776  -46.2906  -59.3295 H         1 UNK         0.0828 
    105 H105       31.7381  -45.7709  -57.7150 H         1 UNK         0.0828 
    106 H106       31.7782  -48.2034  -55.8472 H         1 UNK         0.3005 
    107 H107       30.6203  -47.1827  -53.7190 H         1 UNK         0.1257 
    108 H108       27.9114  -47.1038  -53.7931 H         1 UNK         0.0775 
    109 H109       28.0403  -48.7696  -53.3578 H         1 UNK         0.0775 
    110 H110       27.3893  -45.4628  -51.9756 H         1 UNK         0.0840 
    111 H111       28.4686  -45.1722  -50.6389 H         1 UNK         0.0840 
    112 H112       31.4144  -49.1842  -53.2334 H         1 UNK         0.2987 
    113 H113       30.3470  -52.4765  -53.6661 H         1 UNK         0.0785 
    114 H114       32.4078  -53.0496  -54.9570 H         1 UNK         0.0798 
    115 H115       32.5534  -51.3768  -55.4984 H         1 UNK         0.0798 
    116 H116       31.1867  -52.3595  -56.0097 H         1 UNK         0.0798 
    117 H117       32.9266  -51.2876  -53.0644 H         1 UNK         0.3079 
    118 H118       32.2397  -50.2963  -49.8066 H         1 UNK         0.0794 
    119 H119       32.4533  -52.7404  -49.3113 H         1 UNK         0.0786 
    120 H120       33.9689  -51.9026  -49.0287 H         1 UNK         0.0786 
    121 H121       33.7561  -52.8785  -50.4836 H         1 UNK         0.0786 
    122 H122       34.7289  -50.6614  -51.1073 H         1 UNK         0.3032 
    123 H123       35.6706  -48.2427  -51.5897 H         1 UNK         0.1094 
    124 H124       36.0559  -50.3549  -52.7828 H         1 UNK         0.0794 
    125 H125       35.0117  -49.8729  -54.1105 H         1 UNK         0.0794 
    126 H126       36.5453  -49.0512  -53.8421 H         1 UNK         0.0794 
    127 H127       35.1092  -46.3804  -52.6388 H         1 UNK         0.3016 
@<TRIPOS>BOND
     1    1    2 1    
     2    1   67 1    
     3    1   68 1    
     4    1   69 1    
     5    2    3 2    
     6    2    4 am   BACKBONE|DICT|INTERRES
     7    4    5 1    
     8    4   70 1    
     9    5    6 1    
    10    5   65 1    
    11    5   71 1    
    12    6    7 1    
    13    6   72 1    
    14    6   73 1    
    15    7    8 1    
    16    8    9 1    
    17    8   74 1    
    18    8   75 1    
    19    9   10 ar   
    20    9   14 ar   
    21   10   11 ar   
    22   10   76 1    
    23   11   12 ar   
    24   11   48 1    
    25   12   13 ar   
    26   12   77 1    
    27   13   14 ar   
    28   13   15 1    
    29   14   78 1    
    30   15   16 1    
    31   15   79 1    
    32   15   80 1    
    33   16   17 1    
    34   17   18 1    
    35   17   81 1    
    36   17   82 1    
    37   18   19 1    
    38   18   22 1    
    39   18   83 1    
    40   19   20 am   BACKBONE|DICT|INTERRES
    41   19   21 2    
    42   20   84 1    
    43   20   85 1    
    44   22   23 am   BACKBONE|DICT|INTERRES
    45   22   86 1    
    46   23   24 2    
    47   23   25 1    
    48   25   26 1    
    49   25   27 1    
    50   25   87 1    
    51   26   88 1    
    52   26   89 1    
    53   26   90 1    
    54   27   28 am   BACKBONE|DICT|INTERRES
    55   27   91 1    
    56   28   29 2    
    57   28   30 1    
    58   30   31 1    
    59   30   32 1    
    60   30   92 1    
    61   31   93 1    
    62   31   94 1    
    63   31   95 1    
    64   32   33 am   BACKBONE|DICT|INTERRES
    65   32   96 1    
    66   33   34 2    
    67   33   35 1    
    68   35   36 1    
    69   35   37 1    
    70   35   97 1    
    71   36   98 1    
    72   36   99 1    
    73   36  100 1    
    74   37   38 am   BACKBONE|DICT|INTERRES
    75   37  101 1    
    76   38   39 2    
    77   38   40 1    
    78   40   41 1    
    79   40   42 1    
    80   40  102 1    
    81   41  103 1    
    82   41  104 1    
    83   41  105 1    
    84   42   43 am   BACKBONE|DICT|INTERRES
    85   42  106 1    
    86   43   44 2    
    87   43   45 1    
    88   45   46 1    
    89   45   49 1    
    90   45  107 1    
    91   46   47 1    
    92   46  108 1    
    93   46  109 1    
    94   47   48 1    
    95   48  110 1    
    96   48  111 1    
    97   49   50 am   BACKBONE|DICT|INTERRES
    98   49  112 1    
    99   50   51 2    
   100   50   52 1    
   101   52   53 1    
   102   52   54 1    
   103   52  113 1    
   104   53  114 1    
   105   53  115 1    
   106   53  116 1    
   107   54   55 am   BACKBONE|DICT|INTERRES
   108   54  117 1    
   109   55   56 2    
   110   55   57 1    
   111   57   58 1    
   112   57   59 1    
   113   57  118 1    
   114   58  119 1    
   115   58  120 1    
   116   58  121 1    
   117   59   60 am   BACKBONE|DICT|INTERRES
   118   59  122 1    
   119   60   61 2    
   120   60   62 1    
   121   62   63 1    
   122   62   64 1    
   123   62  123 1    
   124   63  124 1    
   125   63  125 1    
   126   63  126 1    
   127   64   65 am   BACKBONE|DICT|INTERRES
   128   64  127 1    
   129   65   66 2    
@<TRIPOS>SUBSTRUCTURE
     1 UNK         1 GROUP             0       ****    0 ROOT    
