@<TRIPOS>MOLECULE
3R134
127   129    1
SMALL
USER_CHARGES


@<TRIPOS>ATOM
      1 CA         32.9303  -44.4514  -46.5210 C.3       0 UNK        -0.1968 
      2 C          33.4019  -44.5559  -47.9642 C.2       0 UNK         0.4852 
      3 O          34.5176  -44.1341  -48.2743 O.2       0 UNK        -0.5359 
      4 N          32.5584  -45.1048  -48.8473 N.am      1 UNK        -0.4300 
      5 CA         32.8591  -45.3309  -50.2645 C.3       1 UNK         0.0863 
      6 C6         31.5785  -45.6025  -51.0914 C.3       11 UNK        -0.0953 
      7 S7         30.3958  -44.2150  -51.0538 S.3       11 UNK        -0.2369 
      8 C8         31.0878  -43.0865  -52.3073 C.3       11 UNK         0.0226 
      9 C9         31.0832  -43.6898  -53.7051 C.ar      11 UNK        -0.0699 
     10 C10        32.2795  -44.1037  -54.3005 C.ar      11 UNK        -0.0804 
     11 C11        32.2812  -44.6557  -55.5852 C.ar      11 UNK        -0.0871 
     12 C12        31.0725  -44.7840  -56.2743 C.ar      11 UNK        -0.1008 
     13 C13        29.8668  -44.3828  -55.6880 C.ar      11 UNK        -0.0735 
     14 C14        29.8810  -43.8299  -54.4044 C.ar      11 UNK        -0.0945 
     15 C15        28.5433  -44.6099  -56.4072 C.3       11 UNK         0.0169 
     16 S16        28.5178  -43.8883  -58.0815 S.3       11 UNK        -0.2669 
     17 C17        27.7940  -45.2514  -59.0624 C.3       11 UNK        -0.0850 
     18 CA         26.3751  -44.9293  -59.5994 C.3       10 UNK         0.0855 
     19 C          25.8841  -46.0288  -60.5881 C.2       10 UNK         0.5543 
     20 N          24.7403  -46.6705  -60.3772 N.am      10 UNK        -0.7343 
     21 O          26.5562  -46.3007  -61.5797 O.2       10 UNK        -0.5027 
     22 N          25.4247  -44.6351  -58.5145 N.am      10 UNK        -0.4495 
     23 C          24.3554  -43.8378  -58.6487 C.2       10 UNK         0.4903 
     24 O          24.1161  -43.1895  -59.6693 O.2       10 UNK        -0.4860 
     25 CA         23.3854  -43.7504  -57.4494 C.3       9 UNK         0.0227 
     26 CB         21.9679  -43.3009  -57.8647 C.3       9 UNK        -0.1964 
     27 N          23.3187  -44.9806  -56.6497 N.am      9 UNK        -0.4231 
     28 C          22.9982  -46.2095  -57.0800 C.2       9 UNK         0.5014 
     29 O          22.6817  -46.4842  -58.2398 O.2       9 UNK        -0.5270 
     30 CA         23.1159  -47.3378  -56.0419 C.3       8 UNK         0.0284 
     31 CB         21.8043  -48.1350  -55.9405 C.3       8 UNK        -0.1977 
     32 N          24.2193  -48.2526  -56.3506 N.am      8 UNK        -0.4342 
     33 C          25.5029  -47.8995  -56.5018 C.2       8 UNK         0.5039 
     34 O          25.9125  -46.7368  -56.4257 O.2       8 UNK        -0.5547 
     35 CA         26.4886  -49.0358  -56.8173 C.3       7 UNK         0.0281 
     36 CB         26.5651  -49.2827  -58.3326 C.3       7 UNK        -0.1963 
     37 N          27.8232  -48.7063  -56.3220 N.am      7 UNK        -0.4444 
     38 C          28.2098  -48.7566  -55.0439 C.2       7 UNK         0.5104 
     39 O          27.5212  -49.2564  -54.1517 O.2       7 UNK        -0.5100 
     40 CA         29.5845  -48.1352  -54.7051 C.3       6 UNK         0.0396 
     41 CB         29.9977  -48.3836  -53.2436 C.3       6 UNK        -0.1801 
     42 N          30.6887  -48.5513  -55.5780 N.am      6 UNK        -0.4747 
     43 C          30.8664  -48.2347  -56.8698 C.2       6 UNK         0.5012 
     44 O          30.0432  -47.6149  -57.5448 O.2       6 UNK        -0.5003 
     45 CA         32.1820  -48.6852  -57.5339 C.3       5 UNK         0.0782 
     46 C46        33.1912  -47.5176  -57.6723 C.3       11 UNK        -0.0868 
     47 S47        33.8667  -46.8904  -56.0925 S.3       11 UNK        -0.2515 
     48 C48        33.5905  -45.0925  -56.2299 C.3       11 UNK         0.0199 
     49 N          32.7734  -49.8711  -56.9022 N.am      5 UNK        -0.4607 
     50 C          32.2853  -51.1110  -57.0282 C.2       4 UNK         0.5031 
     51 O          31.2736  -51.3734  -57.6790 O.2       4 UNK        -0.5119 
     52 CA         33.0284  -52.2638  -56.3291 C.3       4 UNK         0.0263 
     53 CB         34.1462  -52.8247  -57.2307 C.3       4 UNK        -0.1967 
     54 N          33.5209  -51.9747  -54.9738 N.am      4 UNK        -0.4237 
     55 C          34.4985  -51.1425  -54.5902 C.2       3 UNK         0.4908 
     56 O          35.1391  -50.4205  -55.3579 O.2       3 UNK        -0.5102 
     57 CA         34.8357  -51.1644  -53.0890 C.3       3 UNK         0.0241 
     58 CB         35.8421  -52.2870  -52.7848 C.3       3 UNK        -0.1971 
     59 N          35.3862  -49.8938  -52.6148 N.am      3 UNK        -0.4139 
     60 C          34.6969  -48.7493  -52.5356 C.2       2 UNK         0.5016 
     61 O          33.5073  -48.6434  -52.8458 O.2       2 UNK        -0.5319 
     62 CA         35.4809  -47.5268  -52.0200 C.3       2 UNK         0.0286 
     63 CB         36.4188  -46.9721  -53.1056 C.3       2 UNK        -0.1963 
     64 N          34.5902  -46.4536  -51.5746 N.am      2 UNK        -0.4790 
     65 C          33.8627  -46.4873  -50.4508 C.2       1 UNK         0.5024 
     66 O          33.9388  -47.3890  -49.6110 O.2       1 UNK        -0.4888 
     67 H67        33.5989  -45.0102  -45.8668 H         1 UNK         0.0892 
     68 H68        31.9222  -44.8451  -46.3917 H         1 UNK         0.0892 
     69 H69        32.9306  -43.4099  -46.2005 H         1 UNK         0.0892 
     70 H70        31.6605  -45.4445  -48.5346 H         1 UNK         0.3107 
     71 H71        33.3308  -44.4245  -50.6500 H         1 UNK         0.0773 
     72 H72        31.0651  -46.4888  -50.7137 H         1 UNK         0.0680 
     73 H73        31.8233  -45.8264  -52.1303 H         1 UNK         0.0680 
     74 H74        30.4980  -42.1688  -52.3129 H         1 UNK         0.0650 
     75 H75        32.0967  -42.7948  -52.0127 H         1 UNK         0.0650 
     76 H76        33.2112  -43.9952  -53.7633 H         1 UNK         0.1397 
     77 H77        31.0635  -45.2121  -57.2666 H         1 UNK         0.1363 
     78 H78        28.9549  -43.5246  -53.9367 H         1 UNK         0.1355 
     79 H79        27.7095  -44.1936  -55.8399 H         1 UNK         0.0707 
     80 H80        28.3729  -45.6842  -56.4461 H         1 UNK         0.0707 
     81 H81        28.4784  -45.4397  -59.8918 H         1 UNK         0.1034 
     82 H82        27.7784  -46.1766  -58.4862 H         1 UNK         0.1034 
     83 H83        26.4741  -44.0269  -60.2058 H         1 UNK         0.0482 
     84 H84        24.4448  -47.3700  -61.0388 H         1 UNK         0.3460 
     85 H85        24.1484  -46.4534  -59.5822 H         1 UNK         0.3460 
     86 H86        25.5431  -45.1777  -57.6637 H         1 UNK         0.2989 
     87 H87        23.7944  -42.9830  -56.7907 H         1 UNK         0.0559 
     88 H88        21.3056  -43.2263  -57.0024 H         1 UNK         0.0848 
     89 H89        21.5168  -43.9946  -58.5751 H         1 UNK         0.0848 
     90 H90        21.9894  -42.3188  -58.3387 H         1 UNK         0.0848 
     91 H91        23.6195  -44.8862  -55.6889 H         1 UNK         0.3144 
     92 H92        23.3191  -46.8986  -55.0629 H         1 UNK         0.0727 
     93 H93        21.8547  -48.8868  -55.1526 H         1 UNK         0.0790 
     94 H94        21.5662  -48.6431  -56.8761 H         1 UNK         0.0790 
     95 H95        20.9662  -47.4773  -55.7057 H         1 UNK         0.0790 
     96 H96        23.9706  -49.2240  -56.4697 H         1 UNK         0.3215 
     97 H97        26.1475  -49.9498  -56.3261 H         1 UNK         0.0863 
     98 H98        27.2326  -50.1128  -58.5644 H         1 UNK         0.0808 
     99 H99        26.9269  -48.4054  -58.8686 H         1 UNK         0.0808 
    100 H100       25.5847  -49.5310  -58.7414 H         1 UNK         0.0808 
    101 H101       28.4620  -48.2528  -56.9717 H         1 UNK         0.3118 
    102 H102       29.4697  -47.0576  -54.8217 H         1 UNK         0.0546 
    103 H103       29.2484  -47.9988  -52.5506 H         1 UNK         0.0828 
    104 H104       30.9356  -47.8815  -53.0098 H         1 UNK         0.0828 
    105 H105       30.1260  -49.4463  -53.0352 H         1 UNK         0.0828 
    106 H106       31.4354  -49.0626  -55.1290 H         1 UNK         0.3005 
    107 H107       31.9054  -48.9754  -58.5507 H         1 UNK         0.1257 
    108 H108       32.7355  -46.7002  -58.2333 H         1 UNK         0.0775 
    109 H109       34.0363  -47.8443  -58.2801 H         1 UNK         0.0775 
    110 H110       34.4268  -44.5838  -55.7482 H         1 UNK         0.0840 
    111 H111       33.6203  -44.7789  -57.2743 H         1 UNK         0.0840 
    112 H112       33.6262  -49.7365  -56.3651 H         1 UNK         0.2987 
    113 H113       32.2941  -53.0608  -56.1995 H         1 UNK         0.0785 
    114 H114       34.9203  -52.0839  -57.4327 H         1 UNK         0.0798 
    115 H115       33.7452  -53.1418  -58.1943 H         1 UNK         0.0798 
    116 H116       34.6233  -53.6935  -56.7773 H         1 UNK         0.0798 
    117 H117       33.0552  -52.4992  -54.2455 H         1 UNK         0.3079 
    118 H118       33.9174  -51.3571  -52.5296 H         1 UNK         0.0794 
    119 H119       36.7860  -52.1351  -53.3104 H         1 UNK         0.0786 
    120 H120       35.4527  -53.2588  -53.0916 H         1 UNK         0.0786 
    121 H121       36.0575  -52.3501  -51.7179 H         1 UNK         0.0786 
    122 H122       36.3681  -49.8892  -52.3810 H         1 UNK         0.3032 
    123 H123       36.0842  -47.8483  -51.1675 H         1 UNK         0.1094 
    124 H124       35.8645  -46.6013  -53.9672 H         1 UNK         0.0794 
    125 H125       37.0271  -46.1527  -52.7222 H         1 UNK         0.0794 
    126 H126       37.1047  -47.7390  -53.4679 H         1 UNK         0.0794 
    127 H127       34.4338  -45.7059  -52.2335 H         1 UNK         0.3016 
@<TRIPOS>BOND
     1    1    2 1    
     2    1   67 1    
     3    1   68 1    
     4    1   69 1    
     5    2    3 2    
     6    2    4 am   BACKBONE|DICT|INTERRES
     7    4    5 1    
     8    4   70 1    
     9    5    6 1    
    10    5   65 1    
    11    5   71 1    
    12    6    7 1    
    13    6   72 1    
    14    6   73 1    
    15    7    8 1    
    16    8    9 1    
    17    8   74 1    
    18    8   75 1    
    19    9   10 ar   
    20    9   14 ar   
    21   10   11 ar   
    22   10   76 1    
    23   11   12 ar   
    24   11   48 1    
    25   12   13 ar   
    26   12   77 1    
    27   13   14 ar   
    28   13   15 1    
    29   14   78 1    
    30   15   16 1    
    31   15   79 1    
    32   15   80 1    
    33   16   17 1    
    34   17   18 1    
    35   17   81 1    
    36   17   82 1    
    37   18   19 1    
    38   18   22 1    
    39   18   83 1    
    40   19   20 am   BACKBONE|DICT|INTERRES
    41   19   21 2    
    42   20   84 1    
    43   20   85 1    
    44   22   23 am   BACKBONE|DICT|INTERRES
    45   22   86 1    
    46   23   24 2    
    47   23   25 1    
    48   25   26 1    
    49   25   27 1    
    50   25   87 1    
    51   26   88 1    
    52   26   89 1    
    53   26   90 1    
    54   27   28 am   BACKBONE|DICT|INTERRES
    55   27   91 1    
    56   28   29 2    
    57   28   30 1    
    58   30   31 1    
    59   30   32 1    
    60   30   92 1    
    61   31   93 1    
    62   31   94 1    
    63   31   95 1    
    64   32   33 am   BACKBONE|DICT|INTERRES
    65   32   96 1    
    66   33   34 2    
    67   33   35 1    
    68   35   36 1    
    69   35   37 1    
    70   35   97 1    
    71   36   98 1    
    72   36   99 1    
    73   36  100 1    
    74   37   38 am   BACKBONE|DICT|INTERRES
    75   37  101 1    
    76   38   39 2    
    77   38   40 1    
    78   40   41 1    
    79   40   42 1    
    80   40  102 1    
    81   41  103 1    
    82   41  104 1    
    83   41  105 1    
    84   42   43 am   BACKBONE|DICT|INTERRES
    85   42  106 1    
    86   43   44 2    
    87   43   45 1    
    88   45   46 1    
    89   45   49 1    
    90   45  107 1    
    91   46   47 1    
    92   46  108 1    
    93   46  109 1    
    94   47   48 1    
    95   48  110 1    
    96   48  111 1    
    97   49   50 am   BACKBONE|DICT|INTERRES
    98   49  112 1    
    99   50   51 2    
   100   50   52 1    
   101   52   53 1    
   102   52   54 1    
   103   52  113 1    
   104   53  114 1    
   105   53  115 1    
   106   53  116 1    
   107   54   55 am   BACKBONE|DICT|INTERRES
   108   54  117 1    
   109   55   56 2    
   110   55   57 1    
   111   57   58 1    
   112   57   59 1    
   113   57  118 1    
   114   58  119 1    
   115   58  120 1    
   116   58  121 1    
   117   59   60 am   BACKBONE|DICT|INTERRES
   118   59  122 1    
   119   60   61 2    
   120   60   62 1    
   121   62   63 1    
   122   62   64 1    
   123   62  123 1    
   124   63  124 1    
   125   63  125 1    
   126   63  126 1    
   127   64   65 am   BACKBONE|DICT|INTERRES
   128   64  127 1    
   129   65   66 2    
@<TRIPOS>SUBSTRUCTURE
     1 UNK         1 GROUP             0       ****    0 ROOT    
