@<TRIPOS>MOLECULE
3R134
127   129    1
SMALL
USER_CHARGES


@<TRIPOS>ATOM
      1 CA         38.3452  -43.1800  -54.8797 C.3       0 UNK        -0.1968 
      2 C          36.9527  -43.7213  -55.1694 C.2       0 UNK         0.4852 
      3 O          36.4875  -43.6329  -56.3072 O.2       0 UNK        -0.5359 
      4 N          36.2834  -44.2706  -54.1482 N.am      1 UNK        -0.4300 
      5 CA         34.9558  -44.8842  -54.2517 C.3       1 UNK         0.0863 
      6 C6         34.2522  -44.9857  -52.8727 C.3       11 UNK        -0.0953 
      7 S7         34.0579  -43.3880  -52.0138 S.3       11 UNK        -0.2369 
      8 C8         32.9240  -42.4729  -53.1097 C.3       11 UNK         0.0226 
      9 C9         31.6014  -43.1928  -53.3398 C.ar      11 UNK        -0.0699 
     10 C10        30.6620  -43.2885  -52.3086 C.ar      11 UNK        -0.0804 
     11 C11        29.4265  -43.9071  -52.5269 C.ar      11 UNK        -0.0871 
     12 C12        29.1303  -44.4219  -53.7920 C.ar      11 UNK        -0.1008 
     13 C13        30.0718  -44.3572  -54.8233 C.ar      11 UNK        -0.0735 
     14 C14        31.3043  -43.7396  -54.5921 C.ar      11 UNK        -0.0945 
     15 C15        29.7628  -44.9694  -56.1819 C.3       11 UNK         0.0169 
     16 S16        29.6566  -43.7216  -57.5065 S.3       11 UNK        -0.2669 
     17 C17        28.1899  -42.7438  -57.0124 C.3       11 UNK        -0.0850 
     18 CA         26.8987  -43.1070  -57.7914 C.3       10 UNK         0.0855 
     19 C          26.9366  -42.6220  -59.2724 C.2       10 UNK         0.5543 
     20 N          26.8187  -43.4905  -60.2709 N.am      10 UNK        -0.7343 
     21 O          27.0592  -41.4245  -59.5184 O.2       10 UNK        -0.5027 
     22 N          26.5593  -44.5235  -57.6132 N.am      10 UNK        -0.4495 
     23 C          25.3431  -45.0588  -57.7609 C.2       10 UNK         0.4903 
     24 O          24.3219  -44.3970  -57.9533 O.2       10 UNK        -0.4860 
     25 CA         25.2676  -46.5969  -57.6845 C.3       9 UNK         0.0227 
     26 CB         24.0346  -47.1697  -58.4140 C.3       9 UNK        -0.1964 
     27 N          26.4944  -47.2656  -58.1407 N.am      9 UNK        -0.4231 
     28 C          27.0763  -47.1973  -59.3477 C.2       9 UNK         0.5014 
     29 O          26.6542  -46.4910  -60.2643 O.2       9 UNK        -0.5270 
     30 CA         28.3420  -48.0485  -59.5945 C.3       8 UNK         0.0284 
     31 CB         29.6118  -47.1761  -59.5281 C.3       8 UNK        -0.1977 
     32 N          28.4766  -49.2524  -58.7536 N.am      8 UNK        -0.4342 
     33 C          28.6272  -49.3198  -57.4244 C.2       8 UNK         0.5039 
     34 O          28.6947  -48.3278  -56.6959 O.2       8 UNK        -0.5547 
     35 CA         28.6594  -50.7227  -56.8032 C.3       7 UNK         0.0281 
     36 CB         30.1025  -51.2035  -56.5907 C.3       7 UNK        -0.1963 
     37 N          27.9636  -50.6879  -55.5184 N.am      7 UNK        -0.4444 
     38 C          26.6359  -50.8189  -55.3818 C.2       7 UNK         0.5104 
     39 O          25.8829  -51.1207  -56.3087 O.2       7 UNK        -0.5100 
     40 CA         26.0314  -50.5697  -53.9863 C.3       6 UNK         0.0396 
     41 CB         25.8387  -51.9000  -53.2411 C.3       6 UNK        -0.1801 
     42 N          26.8374  -49.6705  -53.1599 N.am      6 UNK        -0.4747 
     43 C          27.0045  -48.3579  -53.3825 C.2       6 UNK         0.5012 
     44 O          26.3836  -47.7285  -54.2397 O.2       6 UNK        -0.5003 
     45 CA         28.0444  -47.6209  -52.5078 C.3       5 UNK         0.0782 
     46 C46        27.3390  -46.6419  -51.5365 C.3       11 UNK        -0.0868 
     47 S47        28.4989  -45.6250  -50.5573 S.3       11 UNK        -0.2515 
     48 C48        28.4126  -44.0084  -51.3964 C.3       11 UNK         0.0199 
     49 N          28.9813  -48.5207  -51.8157 N.am      5 UNK        -0.4607 
     50 C          29.8872  -49.2838  -52.4397 C.2       4 UNK         0.5031 
     51 O          29.9667  -49.3573  -53.6660 O.2       4 UNK        -0.5119 
     52 CA         30.8352  -50.0960  -51.5407 C.3       4 UNK         0.0263 
     53 CB         30.0983  -51.2420  -50.8156 C.3       4 UNK        -0.1967 
     54 N          32.0090  -50.5678  -52.2862 N.am      4 UNK        -0.4237 
     55 C          32.0972  -51.5399  -53.2058 C.2       3 UNK         0.4908 
     56 O          31.2098  -52.3596  -53.4497 O.2       3 UNK        -0.5102 
     57 CA         33.4113  -51.5642  -54.0164 C.3       3 UNK         0.0241 
     58 CB         33.5983  -52.8824  -54.7913 C.3       3 UNK        -0.1971 
     59 N          33.4962  -50.4449  -54.9636 N.am      3 UNK        -0.4139 
     60 C          33.6502  -49.1537  -54.6371 C.2       2 UNK         0.5016 
     61 O          33.7889  -48.7633  -53.4731 O.2       2 UNK        -0.5319 
     62 CA         33.6375  -48.1414  -55.8033 C.3       2 UNK         0.0286 
     63 CB         32.3048  -48.1833  -56.5734 C.3       2 UNK        -0.1963 
     64 N          33.8484  -46.7711  -55.3312 N.am      2 UNK        -0.4790 
     65 C          35.0214  -46.2743  -54.9179 C.2       1 UNK         0.5024 
     66 O          36.0935  -46.8793  -55.0124 O.2       1 UNK        -0.4888 
     67 H67        38.6233  -43.3080  -53.8337 H         1 UNK         0.0892 
     68 H68        39.0832  -43.6971  -55.4923 H         1 UNK         0.0892 
     69 H69        38.3911  -42.1169  -55.1145 H         1 UNK         0.0892 
     70 H70        36.7199  -44.3302  -53.2398 H         1 UNK         0.3107 
     71 H71        34.3494  -44.2540  -54.9039 H         1 UNK         0.0773 
     72 H72        34.8137  -45.6487  -52.2117 H         1 UNK         0.0680 
     73 H73        33.2622  -45.4359  -52.9675 H         1 UNK         0.0680 
     74 H74        33.4253  -42.2659  -54.0560 H         1 UNK         0.0650 
     75 H75        32.7227  -41.4989  -52.6615 H         1 UNK         0.0650 
     76 H76        30.8954  -42.8769  -51.3360 H         1 UNK         0.1397 
     77 H77        28.1694  -44.8849  -53.9702 H         1 UNK         0.1363 
     78 H78        32.0218  -43.6702  -55.3979 H         1 UNK         0.1355 
     79 H79        30.5515  -45.6789  -56.4334 H         1 UNK         0.0707 
     80 H80        28.8392  -45.5489  -56.1480 H         1 UNK         0.0707 
     81 H81        28.0126  -42.8646  -55.9436 H         1 UNK         0.1034 
     82 H82        28.4263  -41.6857  -57.1392 H         1 UNK         0.1034 
     83 H83        26.0924  -42.5323  -57.3314 H         1 UNK         0.0482 
     84 H84        26.7133  -44.4841  -60.0966 H         1 UNK         0.3460 
     85 H85        26.8398  -43.1515  -61.2191 H         1 UNK         0.3460 
     86 H86        27.3436  -45.1464  -57.4938 H         1 UNK         0.2989 
     87 H87        25.1679  -46.8414  -56.6261 H         1 UNK         0.0559 
     88 H88        24.0385  -46.9157  -59.4745 H         1 UNK         0.0848 
     89 H89        23.1096  -46.7779  -57.9892 H         1 UNK         0.0848 
     90 H90        23.9930  -48.2556  -58.3286 H         1 UNK         0.0848 
     91 H91        27.0070  -47.7831  -57.4300 H         1 UNK         0.3144 
     92 H92        28.2561  -48.4175  -60.6178 H         1 UNK         0.0727 
     93 H93        30.4989  -47.7454  -59.8052 H         1 UNK         0.0790 
     94 H94        29.7756  -46.7685  -58.5315 H         1 UNK         0.0790 
     95 H95        29.5415  -46.3301  -60.2133 H         1 UNK         0.0790 
     96 H96        28.3973  -50.1259  -59.2572 H         1 UNK         0.3215 
     97 H97        28.1577  -51.4259  -57.4717 H         1 UNK         0.0863 
     98 H98        30.1258  -52.2100  -56.1723 H         1 UNK         0.0808 
     99 H99        30.6448  -50.5518  -55.9066 H         1 UNK         0.0808 
    100 H100       30.6529  -51.2281  -57.5318 H         1 UNK         0.0808 
    101 H101       28.5074  -50.3300  -54.7390 H         1 UNK         0.3118 
    102 H102       25.0503  -50.1116  -54.1282 H         1 UNK         0.0546 
    103 H103       26.7896  -52.4021  -53.0574 H         1 UNK         0.0828 
    104 H104       25.2163  -52.5839  -53.8200 H         1 UNK         0.0828 
    105 H105       25.3450  -51.7506  -52.2808 H         1 UNK         0.0828 
    106 H106       27.3839  -50.0948  -52.4248 H         1 UNK         0.3005 
    107 H107       28.6448  -47.0371  -53.2068 H         1 UNK         0.1257 
    108 H108       26.7127  -47.1967  -50.8353 H         1 UNK         0.0775 
    109 H109       26.6598  -45.9832  -52.0808 H         1 UNK         0.0775 
    110 H110       27.4049  -43.8196  -51.7690 H         1 UNK         0.0840 
    111 H111       28.6043  -43.2282  -50.6580 H         1 UNK         0.0840 
    112 H112       28.9674  -48.4860  -50.8064 H         1 UNK         0.2987 
    113 H113       31.2245  -49.4120  -50.7850 H         1 UNK         0.0785 
    114 H114       29.3636  -50.8511  -50.1111 H         1 UNK         0.0798 
    115 H115       30.7912  -51.8617  -50.2464 H         1 UNK         0.0798 
    116 H116       29.5619  -51.8894  -51.5100 H         1 UNK         0.0798 
    117 H117       32.7783  -49.9019  -52.3081 H         1 UNK         0.3079 
    118 H118       34.2368  -51.4774  -53.3064 H         1 UNK         0.0794 
    119 H119       33.5525  -53.7398  -54.1184 H         1 UNK         0.0786 
    120 H120       34.5670  -52.9162  -55.2904 H         1 UNK         0.0786 
    121 H121       32.8250  -53.0208  -55.5482 H         1 UNK         0.0786 
    122 H122       33.3745  -50.6823  -55.9370 H         1 UNK         0.3032 
    123 H123       34.4497  -48.4023  -56.4859 H         1 UNK         0.1094 
    124 H124       32.2533  -47.3978  -57.3277 H         1 UNK         0.0794 
    125 H125       32.1824  -49.1285  -57.1013 H         1 UNK         0.0794 
    126 H126       31.4475  -48.0651  -55.9078 H         1 UNK         0.0794 
    127 H127       33.0129  -46.2295  -55.1674 H         1 UNK         0.3016 
@<TRIPOS>BOND
     1    1    2 1    
     2    1   67 1    
     3    1   68 1    
     4    1   69 1    
     5    2    3 2    
     6    2    4 am   BACKBONE|DICT|INTERRES
     7    4    5 1    
     8    4   70 1    
     9    5    6 1    
    10    5   65 1    
    11    5   71 1    
    12    6    7 1    
    13    6   72 1    
    14    6   73 1    
    15    7    8 1    
    16    8    9 1    
    17    8   74 1    
    18    8   75 1    
    19    9   10 ar   
    20    9   14 ar   
    21   10   11 ar   
    22   10   76 1    
    23   11   12 ar   
    24   11   48 1    
    25   12   13 ar   
    26   12   77 1    
    27   13   14 ar   
    28   13   15 1    
    29   14   78 1    
    30   15   16 1    
    31   15   79 1    
    32   15   80 1    
    33   16   17 1    
    34   17   18 1    
    35   17   81 1    
    36   17   82 1    
    37   18   19 1    
    38   18   22 1    
    39   18   83 1    
    40   19   20 am   BACKBONE|DICT|INTERRES
    41   19   21 2    
    42   20   84 1    
    43   20   85 1    
    44   22   23 am   BACKBONE|DICT|INTERRES
    45   22   86 1    
    46   23   24 2    
    47   23   25 1    
    48   25   26 1    
    49   25   27 1    
    50   25   87 1    
    51   26   88 1    
    52   26   89 1    
    53   26   90 1    
    54   27   28 am   BACKBONE|DICT|INTERRES
    55   27   91 1    
    56   28   29 2    
    57   28   30 1    
    58   30   31 1    
    59   30   32 1    
    60   30   92 1    
    61   31   93 1    
    62   31   94 1    
    63   31   95 1    
    64   32   33 am   BACKBONE|DICT|INTERRES
    65   32   96 1    
    66   33   34 2    
    67   33   35 1    
    68   35   36 1    
    69   35   37 1    
    70   35   97 1    
    71   36   98 1    
    72   36   99 1    
    73   36  100 1    
    74   37   38 am   BACKBONE|DICT|INTERRES
    75   37  101 1    
    76   38   39 2    
    77   38   40 1    
    78   40   41 1    
    79   40   42 1    
    80   40  102 1    
    81   41  103 1    
    82   41  104 1    
    83   41  105 1    
    84   42   43 am   BACKBONE|DICT|INTERRES
    85   42  106 1    
    86   43   44 2    
    87   43   45 1    
    88   45   46 1    
    89   45   49 1    
    90   45  107 1    
    91   46   47 1    
    92   46  108 1    
    93   46  109 1    
    94   47   48 1    
    95   48  110 1    
    96   48  111 1    
    97   49   50 am   BACKBONE|DICT|INTERRES
    98   49  112 1    
    99   50   51 2    
   100   50   52 1    
   101   52   53 1    
   102   52   54 1    
   103   52  113 1    
   104   53  114 1    
   105   53  115 1    
   106   53  116 1    
   107   54   55 am   BACKBONE|DICT|INTERRES
   108   54  117 1    
   109   55   56 2    
   110   55   57 1    
   111   57   58 1    
   112   57   59 1    
   113   57  118 1    
   114   58  119 1    
   115   58  120 1    
   116   58  121 1    
   117   59   60 am   BACKBONE|DICT|INTERRES
   118   59  122 1    
   119   60   61 2    
   120   60   62 1    
   121   62   63 1    
   122   62   64 1    
   123   62  123 1    
   124   63  124 1    
   125   63  125 1    
   126   63  126 1    
   127   64   65 am   BACKBONE|DICT|INTERRES
   128   64  127 1    
   129   65   66 2    
@<TRIPOS>SUBSTRUCTURE
     1 UNK         1 GROUP             0       ****    0 ROOT    
