@<TRIPOS>MOLECULE
3R134
127   129    1
SMALL
USER_CHARGES


@<TRIPOS>ATOM
      1 CA         29.4360  -43.8473  -51.0926 C.3       0 UNK        -0.1968 
      2 C          30.5638  -44.5351  -50.3353 C.2       0 UNK         0.4852 
      3 O          30.4388  -44.7680  -49.1319 O.2       0 UNK        -0.5359 
      4 N          31.6608  -44.8541  -51.0334 N.am      1 UNK        -0.4300 
      5 CA         32.8066  -45.6096  -50.5207 C.3       1 UNK         0.0863 
      6 C6         34.1317  -45.1165  -51.1651 C.3       11 UNK        -0.0953 
      7 S7         34.2175  -45.3656  -52.9735 S.3       11 UNK        -0.2369 
      8 C8         34.0136  -43.6795  -53.6325 C.3       11 UNK         0.0226 
      9 C9         32.9090  -43.6269  -54.6777 C.ar      11 UNK        -0.0699 
     10 C10        33.1279  -44.1482  -55.9550 C.ar      11 UNK        -0.0804 
     11 C11        32.1234  -44.1005  -56.9259 C.ar      11 UNK        -0.0871 
     12 C12        30.8875  -43.5235  -56.6078 C.ar      11 UNK        -0.1008 
     13 C13        30.6611  -42.9668  -55.3399 C.ar      11 UNK        -0.0735 
     14 C14        31.6777  -43.0365  -54.3802 C.ar      11 UNK        -0.0945 
     15 C15        29.3547  -42.2615  -54.9606 C.3       11 UNK         0.0169 
     16 S16        28.4478  -41.4761  -56.3465 S.3       11 UNK        -0.2669 
     17 C17        27.3347  -42.7377  -57.0857 C.3       11 UNK        -0.0850 
     18 CA         27.0110  -44.0122  -56.2529 C.3       10 UNK         0.0855 
     19 C          26.0470  -43.7727  -55.0527 C.2       10 UNK         0.5543 
     20 N          25.8289  -44.7803  -54.2193 N.am      10 UNK        -0.7343 
     21 O          25.4950  -42.6903  -54.8695 O.2       10 UNK        -0.5027 
     22 N          26.6085  -45.1402  -57.1083 N.am      10 UNK        -0.4495 
     23 C          25.4588  -45.2262  -57.7901 C.2       10 UNK         0.4903 
     24 O          24.5751  -44.3694  -57.7556 O.2       10 UNK        -0.4860 
     25 CA         25.2530  -46.4464  -58.6967 C.3       9 UNK         0.0227 
     26 CB         25.7989  -46.1594  -60.1064 C.3       9 UNK        -0.1964 
     27 N          25.8631  -47.6806  -58.1874 N.am      9 UNK        -0.4231 
     28 C          25.2505  -48.8731  -58.2159 C.2       9 UNK         0.5014 
     29 O          24.0683  -49.0316  -58.5267 O.2       9 UNK        -0.5270 
     30 CA         26.0976  -50.1178  -57.9090 C.3       8 UNK         0.0284 
     31 CB         26.9246  -50.5121  -59.1439 C.3       8 UNK        -0.1977 
     32 N          26.9756  -49.9830  -56.7459 N.am      8 UNK        -0.4342 
     33 C          26.5494  -49.9948  -55.4751 C.2       8 UNK         0.5039 
     34 O          25.3621  -50.0440  -55.1503 O.2       8 UNK        -0.5547 
     35 CA         27.6274  -49.9733  -54.3763 C.3       7 UNK         0.0281 
     36 CB         28.2582  -51.3641  -54.1983 C.3       7 UNK        -0.1963 
     37 N          28.6795  -48.9921  -54.6332 N.am      7 UNK        -0.4444 
     38 C          28.4941  -47.6662  -54.6158 C.2       7 UNK         0.5104 
     39 O          27.4320  -47.1158  -54.3269 O.2       7 UNK        -0.5100 
     40 CA         29.6897  -46.8106  -55.0512 C.3       6 UNK         0.0396 
     41 CB         30.6978  -46.6440  -53.9110 C.3       6 UNK        -0.1801 
     42 N          30.3417  -47.3463  -56.2431 N.am      6 UNK        -0.4747 
     43 C          29.7655  -47.4343  -57.4513 C.2       6 UNK         0.5012 
     44 O          28.6206  -47.0489  -57.6966 O.2       6 UNK        -0.5003 
     45 CA         30.5887  -48.1134  -58.5620 C.3       5 UNK         0.0782 
     46 C46        31.4451  -47.0931  -59.3498 C.3       11 UNK        -0.0868 
     47 S47        32.8326  -46.3741  -58.3960 S.3       11 UNK        -0.2515 
     48 C48        32.4099  -44.5981  -58.3383 C.3       11 UNK         0.0199 
     49 N          31.3797  -49.2422  -58.0595 N.am      5 UNK        -0.4607 
     50 C          30.8550  -50.3695  -57.5583 C.2       4 UNK         0.5031 
     51 O          29.6475  -50.5931  -57.5023 O.2       4 UNK        -0.5119 
     52 CA         31.8371  -51.3924  -56.9655 C.3       4 UNK         0.0263 
     53 CB         32.4362  -52.2747  -58.0719 C.3       4 UNK        -0.1967 
     54 N          32.9123  -50.7638  -56.1919 N.am      4 UNK        -0.4237 
     55 C          32.7167  -50.0265  -55.0901 C.2       3 UNK         0.4908 
     56 O          31.6051  -49.8152  -54.5993 O.2       3 UNK        -0.5102 
     57 CA         33.9705  -49.3604  -54.4973 C.3       3 UNK         0.0241 
     58 CB         34.3048  -48.0810  -55.2833 C.3       3 UNK        -0.1971 
     59 N          33.8370  -49.0272  -53.0755 N.am      3 UNK        -0.4139 
     60 C          33.7170  -49.9208  -52.0823 C.2       2 UNK         0.5016 
     61 O          33.7140  -51.1398  -52.2646 O.2       2 UNK        -0.5319 
     62 CA         33.6319  -49.3891  -50.6355 C.3       2 UNK         0.0286 
     63 CB         34.7859  -49.9468  -49.7831 C.3       2 UNK        -0.1963 
     64 N          33.6479  -47.9249  -50.5333 N.am      2 UNK        -0.4790 
     65 C          32.5707  -47.1367  -50.6494 C.2       1 UNK         0.5024 
     66 O          31.4388  -47.5814  -50.8506 O.2       1 UNK        -0.4888 
     67 H67        29.6343  -43.7936  -52.1621 H         1 UNK         0.0892 
     68 H68        28.5035  -44.3936  -50.9528 H         1 UNK         0.0892 
     69 H69        29.2964  -42.8329  -50.7200 H         1 UNK         0.0892 
     70 H70        31.6973  -44.6605  -52.0226 H         1 UNK         0.3107 
     71 H71        32.8907  -45.4179  -49.4489 H         1 UNK         0.0773 
     72 H72        34.2755  -44.0609  -50.9322 H         1 UNK         0.0680 
     73 H73        34.9920  -45.6125  -50.7136 H         1 UNK         0.0680 
     74 H74        34.9558  -43.3608  -54.0803 H         1 UNK         0.0650 
     75 H75        33.8051  -42.9705  -52.8307 H         1 UNK         0.0650 
     76 H76        34.0861  -44.5884  -56.1958 H         1 UNK         0.1397 
     77 H77        30.1173  -43.4798  -57.3634 H         1 UNK         0.1363 
     78 H78        31.5172  -42.6072  -53.4009 H         1 UNK         0.1355 
     79 H79        29.6003  -41.4474  -54.2768 H         1 UNK         0.0707 
     80 H80        28.7190  -42.9255  -54.3786 H         1 UNK         0.0707 
     81 H81        26.4090  -42.2409  -57.3821 H         1 UNK         0.1034 
     82 H82        27.8028  -43.0359  -58.0249 H         1 UNK         0.1034 
     83 H83        27.9436  -44.3490  -55.8216 H         1 UNK         0.0482 
     84 H84        25.2035  -44.6508  -53.4407 H         1 UNK         0.3460 
     85 H85        26.3134  -45.6683  -54.3369 H         1 UNK         0.3460 
     86 H86        27.3018  -45.8750  -57.2173 H         1 UNK         0.2989 
     87 H87        24.1715  -46.5730  -58.7795 H         1 UNK         0.0559 
     88 H88        26.8832  -46.0393  -60.1009 H         1 UNK         0.0848 
     89 H89        25.3699  -45.2434  -60.5153 H         1 UNK         0.0848 
     90 H90        25.5550  -46.9664  -60.7975 H         1 UNK         0.0848 
     91 H91        26.8423  -47.6324  -57.9181 H         1 UNK         0.3144 
     92 H92        25.4057  -50.9380  -57.7048 H         1 UNK         0.0727 
     93 H93        27.6682  -49.7542  -59.3915 H         1 UNK         0.0790 
     94 H94        26.2856  -50.6405  -60.0187 H         1 UNK         0.0790 
     95 H95        27.4477  -51.4554  -58.9857 H         1 UNK         0.0790 
     96 H96        27.9774  -50.0190  -56.9263 H         1 UNK         0.3215 
     97 H97        27.1385  -49.7002  -53.4384 H         1 UNK         0.0863 
     98 H98        28.9702  -51.3728  -53.3726 H         1 UNK         0.0808 
     99 H99        28.7862  -51.6883  -55.0958 H         1 UNK         0.0808 
    100 H100       27.4961  -52.1129  -53.9787 H         1 UNK         0.0808 
    101 H101       29.6088  -49.3450  -54.8428 H         1 UNK         0.3118 
    102 H102       29.3322  -45.8173  -55.3016 H         1 UNK         0.0546 
    103 H103       30.2220  -46.1660  -53.0558 H         1 UNK         0.0828 
    104 H104       31.5374  -46.0229  -54.2144 H         1 UNK         0.0828 
    105 H105       31.0931  -47.5958  -53.5619 H         1 UNK         0.0828 
    106 H106       31.2741  -47.7146  -56.1290 H         1 UNK         0.3005 
    107 H107       29.8611  -48.5283  -59.2633 H         1 UNK         0.1257 
    108 H108       30.8087  -46.3068  -59.7587 H         1 UNK         0.0775 
    109 H109       31.8759  -47.5883  -60.2214 H         1 UNK         0.0775 
    110 H110       33.2561  -44.0354  -58.7346 H         1 UNK         0.0840 
    111 H111       31.5745  -44.3734  -59.0015 H         1 UNK         0.0840 
    112 H112       32.3820  -49.1235  -58.0636 H         1 UNK         0.2987 
    113 H113       31.2714  -52.0336  -56.2858 H         1 UNK         0.0785 
    114 H114       31.6492  -52.7631  -58.6485 H         1 UNK         0.0798 
    115 H115       33.0646  -53.0619  -57.6549 H         1 UNK         0.0798 
    116 H116       33.0411  -51.6961  -58.7713 H         1 UNK         0.0798 
    117 H117       33.8532  -50.8863  -56.5384 H         1 UNK         0.3079 
    118 H118       34.8054  -50.0578  -54.5935 H         1 UNK         0.0794 
    119 H119       33.5005  -47.3466  -55.2241 H         1 UNK         0.0786 
    120 H120       34.4699  -48.2950  -56.3399 H         1 UNK         0.0786 
    121 H121       35.2146  -47.6113  -54.9092 H         1 UNK         0.0786 
    122 H122       33.8180  -48.0465  -52.8374 H         1 UNK         0.3032 
    123 H123       32.6939  -49.7645  -50.2193 H         1 UNK         0.1094 
    124 H124       35.7580  -49.6276  -50.1610 H         1 UNK         0.0794 
    125 H125       34.7052  -49.6235  -48.7451 H         1 UNK         0.0794 
    126 H126       34.7807  -51.0378  -49.7789 H         1 UNK         0.0794 
    127 H127       34.5497  -47.4959  -50.3799 H         1 UNK         0.3016 
@<TRIPOS>BOND
     1    1    2 1    
     2    1   67 1    
     3    1   68 1    
     4    1   69 1    
     5    2    3 2    
     6    2    4 am   BACKBONE|DICT|INTERRES
     7    4    5 1    
     8    4   70 1    
     9    5    6 1    
    10    5   65 1    
    11    5   71 1    
    12    6    7 1    
    13    6   72 1    
    14    6   73 1    
    15    7    8 1    
    16    8    9 1    
    17    8   74 1    
    18    8   75 1    
    19    9   10 ar   
    20    9   14 ar   
    21   10   11 ar   
    22   10   76 1    
    23   11   12 ar   
    24   11   48 1    
    25   12   13 ar   
    26   12   77 1    
    27   13   14 ar   
    28   13   15 1    
    29   14   78 1    
    30   15   16 1    
    31   15   79 1    
    32   15   80 1    
    33   16   17 1    
    34   17   18 1    
    35   17   81 1    
    36   17   82 1    
    37   18   19 1    
    38   18   22 1    
    39   18   83 1    
    40   19   20 am   BACKBONE|DICT|INTERRES
    41   19   21 2    
    42   20   84 1    
    43   20   85 1    
    44   22   23 am   BACKBONE|DICT|INTERRES
    45   22   86 1    
    46   23   24 2    
    47   23   25 1    
    48   25   26 1    
    49   25   27 1    
    50   25   87 1    
    51   26   88 1    
    52   26   89 1    
    53   26   90 1    
    54   27   28 am   BACKBONE|DICT|INTERRES
    55   27   91 1    
    56   28   29 2    
    57   28   30 1    
    58   30   31 1    
    59   30   32 1    
    60   30   92 1    
    61   31   93 1    
    62   31   94 1    
    63   31   95 1    
    64   32   33 am   BACKBONE|DICT|INTERRES
    65   32   96 1    
    66   33   34 2    
    67   33   35 1    
    68   35   36 1    
    69   35   37 1    
    70   35   97 1    
    71   36   98 1    
    72   36   99 1    
    73   36  100 1    
    74   37   38 am   BACKBONE|DICT|INTERRES
    75   37  101 1    
    76   38   39 2    
    77   38   40 1    
    78   40   41 1    
    79   40   42 1    
    80   40  102 1    
    81   41  103 1    
    82   41  104 1    
    83   41  105 1    
    84   42   43 am   BACKBONE|DICT|INTERRES
    85   42  106 1    
    86   43   44 2    
    87   43   45 1    
    88   45   46 1    
    89   45   49 1    
    90   45  107 1    
    91   46   47 1    
    92   46  108 1    
    93   46  109 1    
    94   47   48 1    
    95   48  110 1    
    96   48  111 1    
    97   49   50 am   BACKBONE|DICT|INTERRES
    98   49  112 1    
    99   50   51 2    
   100   50   52 1    
   101   52   53 1    
   102   52   54 1    
   103   52  113 1    
   104   53  114 1    
   105   53  115 1    
   106   53  116 1    
   107   54   55 am   BACKBONE|DICT|INTERRES
   108   54  117 1    
   109   55   56 2    
   110   55   57 1    
   111   57   58 1    
   112   57   59 1    
   113   57  118 1    
   114   58  119 1    
   115   58  120 1    
   116   58  121 1    
   117   59   60 am   BACKBONE|DICT|INTERRES
   118   59  122 1    
   119   60   61 2    
   120   60   62 1    
   121   62   63 1    
   122   62   64 1    
   123   62  123 1    
   124   63  124 1    
   125   63  125 1    
   126   63  126 1    
   127   64   65 am   BACKBONE|DICT|INTERRES
   128   64  127 1    
   129   65   66 2    
@<TRIPOS>SUBSTRUCTURE
     1 UNK         1 GROUP             0       ****    0 ROOT    
