@<TRIPOS>MOLECULE
3R134
127   129    1
SMALL
USER_CHARGES


@<TRIPOS>ATOM
      1 CA         37.0042  -45.0247  -52.3886 C.3       0 UNK        -0.1968 
      2 C          36.4385  -45.2383  -53.7904 C.2       0 UNK         0.4852 
      3 O          37.2077  -45.5442  -54.6998 O.2       0 UNK        -0.5359 
      4 N          35.1259  -45.0995  -54.0348 N.am      1 UNK        -0.4300 
      5 CA         34.0287  -44.7558  -53.1113 C.3       1 UNK         0.0863 
      6 C6         34.1583  -43.3672  -52.4164 C.3       11 UNK        -0.0953 
      7 S7         34.5693  -42.0160  -53.5780 S.3       11 UNK        -0.2369 
      8 C8         32.9365  -41.2836  -53.9310 C.3       11 UNK         0.0226 
      9 C9         31.9451  -42.3121  -54.4571 C.ar      11 UNK        -0.0699 
     10 C10        32.1885  -42.9760  -55.6647 C.ar      11 UNK        -0.0804 
     11 C11        31.3223  -43.9797  -56.1079 C.ar      11 UNK        -0.0871 
     12 C12        30.1848  -44.2850  -55.3566 C.ar      11 UNK        -0.1008 
     13 C13        29.9139  -43.6065  -54.1663 C.ar      11 UNK        -0.0735 
     14 C14        30.7998  -42.6241  -53.7172 C.ar      11 UNK        -0.0945 
     15 C15        28.6706  -43.9532  -53.3653 C.3       11 UNK         0.0169 
     16 S16        27.2083  -43.0962  -54.0311 S.3       11 UNK        -0.2669 
     17 C17        25.8785  -44.3271  -53.7657 C.3       11 UNK        -0.0850 
     18 CA         24.9604  -44.5253  -55.0037 C.3       10 UNK         0.0855 
     19 C          23.9167  -43.3774  -55.1474 C.2       10 UNK         0.5543 
     20 N          23.9008  -42.6211  -56.2386 N.am      10 UNK        -0.7343 
     21 O          23.0955  -43.1808  -54.2548 O.2       10 UNK        -0.5027 
     22 N          25.7411  -44.8142  -56.2180 N.am      10 UNK        -0.4495 
     23 C          25.2823  -45.4530  -57.3015 C.2       10 UNK         0.4903 
     24 O          24.1470  -45.9211  -57.3943 O.2       10 UNK        -0.4860 
     25 CA         26.2409  -45.5927  -58.4921 C.3       9 UNK         0.0227 
     26 CB         27.5145  -44.7220  -58.3980 C.3       9 UNK        -0.1964 
     27 N          26.6071  -46.9989  -58.6408 N.am      9 UNK        -0.4231 
     28 C          26.9775  -47.5769  -59.7920 C.2       9 UNK         0.5014 
     29 O          26.9690  -46.9877  -60.8747 O.2       9 UNK        -0.5270 
     30 CA         27.4572  -49.0415  -59.7563 C.3       8 UNK         0.0284 
     31 CB         28.8611  -49.1704  -60.3755 C.3       8 UNK        -0.1977 
     32 N          27.5070  -49.5816  -58.3975 N.am      8 UNK        -0.4342 
     33 C          26.6536  -50.4786  -57.8863 C.2       8 UNK         0.5039 
     34 O          25.7267  -50.9801  -58.5240 O.2       8 UNK        -0.5547 
     35 CA         26.8523  -50.8935  -56.4136 C.3       7 UNK         0.0281 
     36 CB         27.5645  -52.2538  -56.3369 C.3       7 UNK        -0.1963 
     37 N          27.5924  -49.9219  -55.6018 N.am      7 UNK        -0.4444 
     38 C          27.2092  -48.6597  -55.3694 C.2       7 UNK         0.5104 
     39 O          26.1565  -48.1794  -55.7842 O.2       7 UNK        -0.5100 
     40 CA         28.2031  -47.7558  -54.6229 C.3       6 UNK         0.0396 
     41 CB         28.0478  -47.9206  -53.1037 C.3       6 UNK        -0.1801 
     42 N          29.6017  -47.9798  -55.0063 N.am      6 UNK        -0.4747 
     43 C          30.0933  -47.8782  -56.2524 C.2       6 UNK         0.5012 
     44 O          29.4116  -47.5924  -57.2351 O.2       6 UNK        -0.5003 
     45 CA         31.5876  -48.1961  -56.4286 C.3       5 UNK         0.0782 
     46 C46        32.4829  -47.0360  -55.9142 C.3       11 UNK        -0.0868 
     47 S47        33.0188  -45.8906  -57.2291 S.3       11 UNK        -0.2515 
     48 C48        31.6144  -44.7377  -57.3946 C.3       11 UNK         0.0199 
     49 N          31.8914  -49.4631  -55.7620 N.am      5 UNK        -0.4607 
     50 C          31.5809  -50.6730  -56.2482 C.2       4 UNK         0.5031 
     51 O          31.1076  -50.8564  -57.3692 O.2       4 UNK        -0.5119 
     52 CA         31.8198  -51.8844  -55.3267 C.3       4 UNK         0.0263 
     53 CB         33.1929  -52.5125  -55.6135 C.3       4 UNK        -0.1967 
     54 N          31.7254  -51.5586  -53.9002 N.am      4 UNK        -0.4237 
     55 C          30.5972  -51.1875  -53.2770 C.2       3 UNK         0.4908 
     56 O          29.4976  -51.1438  -53.8268 O.2       3 UNK        -0.5102 
     57 CA         30.7268  -50.7289  -51.8117 C.3       3 UNK         0.0241 
     58 CB         30.5858  -51.9270  -50.8598 C.3       3 UNK        -0.1971 
     59 N          31.9737  -50.0090  -51.5178 N.am      3 UNK        -0.4139 
     60 C          32.3896  -48.9025  -52.1509 C.2       2 UNK         0.5016 
     61 O          31.7521  -48.3622  -53.0591 O.2       2 UNK        -0.5319 
     62 CA         33.7728  -48.3600  -51.7483 C.3       2 UNK         0.0286 
     63 CB         34.8766  -49.3878  -52.0590 C.3       2 UNK        -0.1963 
     64 N          34.0905  -47.1259  -52.4678 N.am      2 UNK        -0.4790 
     65 C          33.6684  -45.8988  -52.1343 C.2       1 UNK         0.5024 
     66 O          33.0264  -45.6578  -51.1111 O.2       1 UNK        -0.4888 
     67 H67        37.1673  -43.9626  -52.2084 H         1 UNK         0.0892 
     68 H68        36.3564  -45.4181  -51.6083 H         1 UNK         0.0892 
     69 H69        37.9658  -45.5281  -52.2911 H         1 UNK         0.0892 
     70 H70        34.8243  -45.2292  -54.9907 H         1 UNK         0.3107 
     71 H71        33.1510  -44.6989  -53.7527 H         1 UNK         0.0773 
     72 H72        34.9197  -43.3877  -51.6371 H         1 UNK         0.0680 
     73 H73        33.2285  -43.1115  -51.9052 H         1 UNK         0.0680 
     74 H74        33.0563  -40.4906  -54.6702 H         1 UNK         0.0650 
     75 H75        32.5611  -40.8066  -53.0243 H         1 UNK         0.0650 
     76 H76        33.0758  -42.7408  -56.2369 H         1 UNK         0.1397 
     77 H77        29.5068  -45.0543  -55.6942 H         1 UNK         0.1363 
     78 H78        30.6017  -42.1106  -52.7863 H         1 UNK         0.1355 
     79 H79        28.5330  -45.0324  -53.3820 H         1 UNK         0.0707 
     80 H80        28.7976  -43.6811  -52.3164 H         1 UNK         0.0707 
     81 H81        26.3157  -45.2903  -53.5041 H         1 UNK         0.1034 
     82 H82        25.2985  -44.0341  -52.8883 H         1 UNK         0.1034 
     83 H83        24.3632  -45.4166  -54.8002 H         1 UNK         0.0482 
     84 H84        23.2167  -41.8857  -56.3211 H         1 UNK         0.3460 
     85 H85        24.5711  -42.7737  -56.9740 H         1 UNK         0.3460 
     86 H86        26.6756  -44.4333  -56.2295 H         1 UNK         0.2989 
     87 H87        25.6770  -45.2755  -59.3718 H         1 UNK         0.0559 
     88 H88        27.2721  -43.6703  -58.2398 H         1 UNK         0.0848 
     89 H89        28.0932  -44.7762  -59.3202 H         1 UNK         0.0848 
     90 H90        28.1673  -45.0467  -57.5888 H         1 UNK         0.0848 
     91 H91        26.5672  -47.5548  -57.7927 H         1 UNK         0.3144 
     92 H92        26.7625  -49.6185  -60.3698 H         1 UNK         0.0727 
     93 H93        29.2043  -50.2052  -60.3674 H         1 UNK         0.0790 
     94 H94        29.5956  -48.5710  -59.8359 H         1 UNK         0.0790 
     95 H95        28.8665  -48.8369  -61.4140 H         1 UNK         0.0790 
     96 H96        28.2259  -49.1872  -57.7991 H         1 UNK         0.3215 
     97 H97        25.8591  -50.9995  -55.9723 H         1 UNK         0.0863 
     98 H98        27.6228  -52.6144  -55.3097 H         1 UNK         0.0808 
     99 H99        28.5802  -52.1977  -56.7307 H         1 UNK         0.0808 
    100 H100       27.0307  -53.0098  -56.9145 H         1 UNK         0.0808 
    101 H101       28.4400  -50.2567  -55.1488 H         1 UNK         0.3118 
    102 H102       27.9596  -46.7256  -54.8857 H         1 UNK         0.0546 
    103 H103       28.1872  -48.9566  -52.7967 H         1 UNK         0.0828 
    104 H104       27.0498  -47.6226  -52.7805 H         1 UNK         0.0828 
    105 H105       28.7659  -47.3107  -52.5554 H         1 UNK         0.0828 
    106 H106       30.2529  -48.2043  -54.2571 H         1 UNK         0.3005 
    107 H107       31.7687  -48.3355  -57.4973 H         1 UNK         0.1257 
    108 H108       33.4037  -47.4451  -55.4961 H         1 UNK         0.0775 
    109 H109       32.0259  -46.4850  -55.0905 H         1 UNK         0.0775 
    110 H110       31.8426  -44.0215  -58.1852 H         1 UNK         0.0840 
    111 H111       30.7348  -45.2851  -57.7349 H         1 UNK         0.0840 
    112 H112       32.1966  -49.3869  -54.8000 H         1 UNK         0.2987 
    113 H113       31.0493  -52.6245  -55.5540 H         1 UNK         0.0785 
    114 H114       33.2824  -52.7899  -56.6649 H         1 UNK         0.0798 
    115 H115       33.3452  -53.4193  -55.0278 H         1 UNK         0.0798 
    116 H116       34.0084  -51.8241  -55.3878 H         1 UNK         0.0798 
    117 H117       32.5833  -51.5776  -53.3688 H         1 UNK         0.3079 
    118 H118       29.9044  -50.0403  -51.6119 H         1 UNK         0.0794 
    119 H119       30.5687  -51.6068  -49.8178 H         1 UNK         0.0786 
    120 H120       31.4031  -52.6392  -50.9799 H         1 UNK         0.0786 
    121 H121       29.6548  -52.4649  -51.0456 H         1 UNK         0.0786 
    122 H122       32.5522  -50.3946  -50.7849 H         1 UNK         0.3032 
    123 H123       33.7610  -48.1585  -50.6746 H         1 UNK         0.1094 
    124 H124       34.8897  -49.6628  -53.1147 H         1 UNK         0.0794 
    125 H125       35.8622  -48.9958  -51.8060 H         1 UNK         0.0794 
    126 H126       34.7459  -50.3049  -51.4835 H         1 UNK         0.0794 
    127 H127       34.5901  -47.2307  -53.3383 H         1 UNK         0.3016 
@<TRIPOS>BOND
     1    1    2 1    
     2    1   67 1    
     3    1   68 1    
     4    1   69 1    
     5    2    3 2    
     6    2    4 am   BACKBONE|DICT|INTERRES
     7    4    5 1    
     8    4   70 1    
     9    5    6 1    
    10    5   65 1    
    11    5   71 1    
    12    6    7 1    
    13    6   72 1    
    14    6   73 1    
    15    7    8 1    
    16    8    9 1    
    17    8   74 1    
    18    8   75 1    
    19    9   10 ar   
    20    9   14 ar   
    21   10   11 ar   
    22   10   76 1    
    23   11   12 ar   
    24   11   48 1    
    25   12   13 ar   
    26   12   77 1    
    27   13   14 ar   
    28   13   15 1    
    29   14   78 1    
    30   15   16 1    
    31   15   79 1    
    32   15   80 1    
    33   16   17 1    
    34   17   18 1    
    35   17   81 1    
    36   17   82 1    
    37   18   19 1    
    38   18   22 1    
    39   18   83 1    
    40   19   20 am   BACKBONE|DICT|INTERRES
    41   19   21 2    
    42   20   84 1    
    43   20   85 1    
    44   22   23 am   BACKBONE|DICT|INTERRES
    45   22   86 1    
    46   23   24 2    
    47   23   25 1    
    48   25   26 1    
    49   25   27 1    
    50   25   87 1    
    51   26   88 1    
    52   26   89 1    
    53   26   90 1    
    54   27   28 am   BACKBONE|DICT|INTERRES
    55   27   91 1    
    56   28   29 2    
    57   28   30 1    
    58   30   31 1    
    59   30   32 1    
    60   30   92 1    
    61   31   93 1    
    62   31   94 1    
    63   31   95 1    
    64   32   33 am   BACKBONE|DICT|INTERRES
    65   32   96 1    
    66   33   34 2    
    67   33   35 1    
    68   35   36 1    
    69   35   37 1    
    70   35   97 1    
    71   36   98 1    
    72   36   99 1    
    73   36  100 1    
    74   37   38 am   BACKBONE|DICT|INTERRES
    75   37  101 1    
    76   38   39 2    
    77   38   40 1    
    78   40   41 1    
    79   40   42 1    
    80   40  102 1    
    81   41  103 1    
    82   41  104 1    
    83   41  105 1    
    84   42   43 am   BACKBONE|DICT|INTERRES
    85   42  106 1    
    86   43   44 2    
    87   43   45 1    
    88   45   46 1    
    89   45   49 1    
    90   45  107 1    
    91   46   47 1    
    92   46  108 1    
    93   46  109 1    
    94   47   48 1    
    95   48  110 1    
    96   48  111 1    
    97   49   50 am   BACKBONE|DICT|INTERRES
    98   49  112 1    
    99   50   51 2    
   100   50   52 1    
   101   52   53 1    
   102   52   54 1    
   103   52  113 1    
   104   53  114 1    
   105   53  115 1    
   106   53  116 1    
   107   54   55 am   BACKBONE|DICT|INTERRES
   108   54  117 1    
   109   55   56 2    
   110   55   57 1    
   111   57   58 1    
   112   57   59 1    
   113   57  118 1    
   114   58  119 1    
   115   58  120 1    
   116   58  121 1    
   117   59   60 am   BACKBONE|DICT|INTERRES
   118   59  122 1    
   119   60   61 2    
   120   60   62 1    
   121   62   63 1    
   122   62   64 1    
   123   62  123 1    
   124   63  124 1    
   125   63  125 1    
   126   63  126 1    
   127   64   65 am   BACKBONE|DICT|INTERRES
   128   64  127 1    
   129   65   66 2    
@<TRIPOS>SUBSTRUCTURE
     1 UNK         1 GROUP             0       ****    0 ROOT    
