@<TRIPOS>MOLECULE
3R134
127   129    1
SMALL
USER_CHARGES


@<TRIPOS>ATOM
      1 CA         38.0540  -45.0678  -51.5707 C.3       0 UNK        -0.1968 
      2 C          36.9645  -45.7831  -52.3550 C.2       0 UNK         0.4852 
      3 O          37.2470  -46.7693  -53.0373 O.2       0 UNK        -0.5359 
      4 N          35.7159  -45.3097  -52.2516 N.am      1 UNK        -0.4300 
      5 CA         34.5291  -45.8197  -52.9532 C.3       1 UNK         0.0863 
      6 C6         33.4164  -44.7389  -53.0303 C.3       11 UNK        -0.0953 
      7 S7         33.8937  -43.3066  -54.0491 S.3       11 UNK        -0.2369 
      8 C8         32.4584  -42.2050  -53.8140 C.3       11 UNK         0.0226 
      9 C9         31.1431  -42.8601  -54.2190 C.ar      11 UNK        -0.0699 
     10 C10        30.1827  -43.1695  -53.2493 C.ar      11 UNK        -0.0804 
     11 C11        28.9873  -43.8017  -53.6078 C.ar      11 UNK        -0.0871 
     12 C12        28.7477  -44.0957  -54.9544 C.ar      11 UNK        -0.1008 
     13 C13        29.6966  -43.7921  -55.9324 C.ar      11 UNK        -0.0735 
     14 C14        30.8913  -43.1688  -55.5599 C.ar      11 UNK        -0.0945 
     15 C15        29.4445  -44.1740  -57.3832 C.3       11 UNK         0.0169 
     16 S16        28.5876  -42.8539  -58.2922 S.3       11 UNK        -0.2669 
     17 C17        28.7279  -43.4922  -59.9983 C.3       11 UNK        -0.0850 
     18 CA         27.3753  -43.5412  -60.7690 C.3       10 UNK         0.0855 
     19 C          27.5679  -43.9140  -62.2721 C.2       10 UNK         0.5543 
     20 N          26.6422  -44.6275  -62.9019 N.am      10 UNK        -0.7343 
     21 O          28.5560  -43.5249  -62.8905 O.2       10 UNK        -0.5027 
     22 N          26.3141  -44.3062  -60.0843 N.am      10 UNK        -0.4495 
     23 C          26.3539  -45.6017  -59.7481 C.2       10 UNK         0.4903 
     24 O          27.3313  -46.3360  -59.9040 O.2       10 UNK        -0.4860 
     25 CA         25.0502  -46.1920  -59.1863 C.3       9 UNK         0.0227 
     26 CB         24.4206  -47.1733  -60.1886 C.3       9 UNK        -0.1964 
     27 N          25.2840  -46.8822  -57.9205 N.am      9 UNK        -0.4231 
     28 C          25.5494  -46.2783  -56.7578 C.2       9 UNK         0.5014 
     29 O          25.5627  -45.0557  -56.6129 O.2       9 UNK        -0.5270 
     30 CA         25.8464  -47.1706  -55.5420 C.3       8 UNK         0.0284 
     31 CB         24.5593  -47.5154  -54.7691 C.3       8 UNK        -0.1977 
     32 N          26.6402  -48.3708  -55.8322 N.am      8 UNK        -0.4342 
     33 C          26.3101  -49.4846  -56.4998 C.2       8 UNK         0.5039 
     34 O          25.2492  -49.6352  -57.1069 O.2       8 UNK        -0.5547 
     35 CA         27.3459  -50.6247  -56.4842 C.3       7 UNK         0.0281 
     36 CB         28.3392  -50.4707  -57.6470 C.3       7 UNK        -0.1963 
     37 N          28.0808  -50.6974  -55.2159 N.am      7 UNK        -0.4444 
     38 C          27.5379  -51.0526  -54.0404 C.2       7 UNK         0.5104 
     39 O          26.3932  -51.4892  -53.9172 O.2       7 UNK        -0.5100 
     40 CA         28.4013  -50.8398  -52.7835 C.3       6 UNK         0.0396 
     41 CB         29.3903  -51.9982  -52.5802 C.3       6 UNK        -0.1801 
     42 N          29.1169  -49.5615  -52.8369 N.am      6 UNK        -0.4747 
     43 C          28.5237  -48.3656  -52.6859 C.2       6 UNK         0.5012 
     44 O          27.3496  -48.2326  -52.3412 O.2       6 UNK        -0.5003 
     45 CA         29.3450  -47.1087  -53.0348 C.3       5 UNK         0.0782 
     46 C46        29.7940  -46.3080  -51.7858 C.3       11 UNK        -0.0868 
     47 S47        28.5892  -45.1035  -51.1181 S.3       11 UNK        -0.2515 
     48 C48        27.9414  -44.1729  -52.5583 C.3       11 UNK         0.0199 
     49 N          30.4787  -47.4110  -53.9148 N.am      5 UNK        -0.4607 
     50 C          30.3638  -47.5646  -55.2397 C.2       4 UNK         0.5031 
     51 O          29.2935  -47.4787  -55.8368 O.2       4 UNK        -0.5119 
     52 CA         31.6296  -47.9225  -56.0325 C.3       4 UNK         0.0263 
     53 CB         32.4543  -46.6705  -56.3650 C.3       4 UNK        -0.1967 
     54 N          32.4774  -48.9158  -55.3710 N.am      4 UNK        -0.4237 
     55 C          32.1097  -50.1816  -55.1257 C.2       3 UNK         0.4908 
     56 O          30.9830  -50.6210  -55.3551 O.2       3 UNK        -0.5102 
     57 CA         33.1761  -51.1090  -54.5235 C.3       3 UNK         0.0241 
     58 CB         34.0756  -51.6846  -55.6291 C.3       3 UNK        -0.1971 
     59 N          33.9990  -50.4172  -53.5291 N.am      3 UNK        -0.4139 
     60 C          33.6416  -50.2551  -52.2485 C.2       2 UNK         0.5016 
     61 O          32.6207  -50.7315  -51.7519 O.2       2 UNK        -0.5319 
     62 CA         34.5639  -49.3736  -51.3894 C.3       2 UNK         0.0286 
     63 CB         35.8593  -50.1163  -51.0231 C.3       2 UNK        -0.1963 
     64 N          34.8914  -48.0897  -52.0215 N.am      2 UNK        -0.4790 
     65 C          33.9983  -47.1492  -52.3595 C.2       1 UNK         0.5024 
     66 O          32.7861  -47.3123  -52.2242 O.2       1 UNK        -0.4888 
     67 H67        37.6635  -44.2176  -51.0116 H         1 UNK         0.0892 
     68 H68        38.5196  -45.7542  -50.8639 H         1 UNK         0.0892 
     69 H69        38.8245  -44.7020  -52.2490 H         1 UNK         0.0892 
     70 H70        35.5473  -44.5087  -51.6598 H         1 UNK         0.3107 
     71 H71        34.8280  -46.0565  -53.9764 H         1 UNK         0.0773 
     72 H72        33.1406  -44.3947  -52.0319 H         1 UNK         0.0680 
     73 H73        32.5068  -45.1446  -53.4742 H         1 UNK         0.0680 
     74 H74        32.4273  -41.8850  -52.7714 H         1 UNK         0.0650 
     75 H75        32.6063  -41.3019  -54.4075 H         1 UNK         0.0650 
     76 H76        30.3722  -42.9382  -52.2101 H         1 UNK         0.1397 
     77 H77        27.8259  -44.5771  -55.2489 H         1 UNK         0.1363 
     78 H78        31.6346  -42.9373  -56.3106 H         1 UNK         0.1355 
     79 H79        30.3931  -44.3874  -57.8770 H         1 UNK         0.0707 
     80 H80        28.8545  -45.0913  -57.4359 H         1 UNK         0.0707 
     81 H81        29.1920  -44.4795  -59.9942 H         1 UNK         0.1034 
     82 H82        29.4338  -42.8417  -60.5179 H         1 UNK         0.1034 
     83 H83        26.9995  -42.5179  -60.7983 H         1 UNK         0.0482 
     84 H84        26.7706  -44.8532  -63.8759 H         1 UNK         0.3460 
     85 H85        25.8186  -44.9400  -62.4146 H         1 UNK         0.3460 
     86 H86        25.4626  -43.7919  -59.9095 H         1 UNK         0.2989 
     87 H87        24.3361  -45.3851  -59.0073 H         1 UNK         0.0559 
     88 H88        25.0804  -48.0170  -60.3965 H         1 UNK         0.0848 
     89 H89        24.2104  -46.6817  -61.1391 H         1 UNK         0.0848 
     90 H90        23.4768  -47.5714  -59.8151 H         1 UNK         0.0848 
     91 H91        25.2789  -47.8989  -57.9258 H         1 UNK         0.3144 
     92 H92        26.4705  -46.5770  -54.8733 H         1 UNK         0.0727 
     93 H93        23.8668  -48.1049  -55.3705 H         1 UNK         0.0790 
     94 H94        24.0343  -46.6089  -54.4652 H         1 UNK         0.0790 
     95 H95        24.7835  -48.0800  -53.8637 H         1 UNK         0.0790 
     96 H96        27.6157  -48.2927  -55.5553 H         1 UNK         0.3215 
     97 H97        26.8056  -51.5645  -56.6165 H         1 UNK         0.0863 
     98 H98        28.9165  -49.5490  -57.5686 H         1 UNK         0.0808 
     99 H99        27.8175  -50.4476  -58.6048 H         1 UNK         0.0808 
    100 H100       29.0430  -51.3026  -57.6796 H         1 UNK         0.0808 
    101 H101       29.0645  -50.4405  -55.2383 H         1 UNK         0.3118 
    102 H102       27.7340  -50.8209  -51.9190 H         1 UNK         0.0546 
    103 H103       29.9822  -51.8597  -51.6753 H         1 UNK         0.0828 
    104 H104       30.0804  -52.1035  -53.4163 H         1 UNK         0.0828 
    105 H105       28.8600  -52.9458  -52.4782 H         1 UNK         0.0828 
    106 H106       30.0839  -49.5897  -53.1288 H         1 UNK         0.3005 
    107 H107       28.6607  -46.4901  -53.6102 H         1 UNK         0.1257 
    108 H108       30.6805  -45.7207  -52.0240 H         1 UNK         0.0775 
    109 H109       30.1089  -46.9775  -50.9831 H         1 UNK         0.0775 
    110 H110       27.1356  -44.7565  -53.0066 H         1 UNK         0.0840 
    111 H111       27.4756  -43.2561  -52.1948 H         1 UNK         0.0840 
    112 H112       31.3854  -47.4933  -53.4621 H         1 UNK         0.2987 
    113 H113       31.2983  -48.3590  -56.9775 H         1 UNK         0.0785 
    114 H114       33.2843  -46.9068  -57.0310 H         1 UNK         0.0798 
    115 H115       31.8420  -45.9241  -56.8693 H         1 UNK         0.0798 
    116 H116       32.8638  -46.2022  -55.4731 H         1 UNK         0.0798 
    117 H117       33.4212  -48.6376  -55.1527 H         1 UNK         0.3079 
    118 H118       32.6589  -51.9434  -54.0442 H         1 UNK         0.0794 
    119 H119       34.7958  -52.3950  -55.2226 H         1 UNK         0.0786 
    120 H120       34.6319  -50.9051  -56.1515 H         1 UNK         0.0786 
    121 H121       33.4831  -52.2173  -56.3745 H         1 UNK         0.0786 
    122 H122       34.8654  -50.0043  -53.8430 H         1 UNK         0.3032 
    123 H123       34.0262  -49.1545  -50.4640 H         1 UNK         0.1094 
    124 H124       36.4752  -50.3193  -51.9000 H         1 UNK         0.0794 
    125 H125       36.4599  -49.5393  -50.3196 H         1 UNK         0.0794 
    126 H126       35.6395  -51.0741  -50.5489 H         1 UNK         0.0794 
    127 H127       35.8700  -47.8893  -52.2091 H         1 UNK         0.3016 
@<TRIPOS>BOND
     1    1    2 1    
     2    1   67 1    
     3    1   68 1    
     4    1   69 1    
     5    2    3 2    
     6    2    4 am   BACKBONE|DICT|INTERRES
     7    4    5 1    
     8    4   70 1    
     9    5    6 1    
    10    5   65 1    
    11    5   71 1    
    12    6    7 1    
    13    6   72 1    
    14    6   73 1    
    15    7    8 1    
    16    8    9 1    
    17    8   74 1    
    18    8   75 1    
    19    9   10 ar   
    20    9   14 ar   
    21   10   11 ar   
    22   10   76 1    
    23   11   12 ar   
    24   11   48 1    
    25   12   13 ar   
    26   12   77 1    
    27   13   14 ar   
    28   13   15 1    
    29   14   78 1    
    30   15   16 1    
    31   15   79 1    
    32   15   80 1    
    33   16   17 1    
    34   17   18 1    
    35   17   81 1    
    36   17   82 1    
    37   18   19 1    
    38   18   22 1    
    39   18   83 1    
    40   19   20 am   BACKBONE|DICT|INTERRES
    41   19   21 2    
    42   20   84 1    
    43   20   85 1    
    44   22   23 am   BACKBONE|DICT|INTERRES
    45   22   86 1    
    46   23   24 2    
    47   23   25 1    
    48   25   26 1    
    49   25   27 1    
    50   25   87 1    
    51   26   88 1    
    52   26   89 1    
    53   26   90 1    
    54   27   28 am   BACKBONE|DICT|INTERRES
    55   27   91 1    
    56   28   29 2    
    57   28   30 1    
    58   30   31 1    
    59   30   32 1    
    60   30   92 1    
    61   31   93 1    
    62   31   94 1    
    63   31   95 1    
    64   32   33 am   BACKBONE|DICT|INTERRES
    65   32   96 1    
    66   33   34 2    
    67   33   35 1    
    68   35   36 1    
    69   35   37 1    
    70   35   97 1    
    71   36   98 1    
    72   36   99 1    
    73   36  100 1    
    74   37   38 am   BACKBONE|DICT|INTERRES
    75   37  101 1    
    76   38   39 2    
    77   38   40 1    
    78   40   41 1    
    79   40   42 1    
    80   40  102 1    
    81   41  103 1    
    82   41  104 1    
    83   41  105 1    
    84   42   43 am   BACKBONE|DICT|INTERRES
    85   42  106 1    
    86   43   44 2    
    87   43   45 1    
    88   45   46 1    
    89   45   49 1    
    90   45  107 1    
    91   46   47 1    
    92   46  108 1    
    93   46  109 1    
    94   47   48 1    
    95   48  110 1    
    96   48  111 1    
    97   49   50 am   BACKBONE|DICT|INTERRES
    98   49  112 1    
    99   50   51 2    
   100   50   52 1    
   101   52   53 1    
   102   52   54 1    
   103   52  113 1    
   104   53  114 1    
   105   53  115 1    
   106   53  116 1    
   107   54   55 am   BACKBONE|DICT|INTERRES
   108   54  117 1    
   109   55   56 2    
   110   55   57 1    
   111   57   58 1    
   112   57   59 1    
   113   57  118 1    
   114   58  119 1    
   115   58  120 1    
   116   58  121 1    
   117   59   60 am   BACKBONE|DICT|INTERRES
   118   59  122 1    
   119   60   61 2    
   120   60   62 1    
   121   62   63 1    
   122   62   64 1    
   123   62  123 1    
   124   63  124 1    
   125   63  125 1    
   126   63  126 1    
   127   64   65 am   BACKBONE|DICT|INTERRES
   128   64  127 1    
   129   65   66 2    
@<TRIPOS>SUBSTRUCTURE
     1 UNK         1 GROUP             0       ****    0 ROOT    
