@<TRIPOS>MOLECULE
3R134
127   129    1
SMALL
USER_CHARGES


@<TRIPOS>ATOM
      1 CA         37.4018  -43.9357  -50.7179 C.3       0 UNK        -0.1968 
      2 C          37.1747  -44.8988  -51.8741 C.2       0 UNK         0.4852 
      3 O          38.0993  -45.6135  -52.2650 O.2       0 UNK        -0.5359 
      4 N          35.9550  -44.9174  -52.4263 N.am      1 UNK        -0.4300 
      5 CA         35.5400  -45.8195  -53.5043 C.3       1 UNK         0.0863 
      6 C6         34.2609  -45.3173  -54.2161 C.3       11 UNK        -0.0953 
      7 S7         34.5416  -43.7759  -55.1498 S.3       11 UNK        -0.2369 
      8 C8         33.7913  -42.5105  -54.0758 C.3       11 UNK         0.0226 
      9 C9         32.2713  -42.5932  -54.0535 C.ar      11 UNK        -0.0699 
     10 C10        31.6068  -43.0895  -52.9291 C.ar      11 UNK        -0.0804 
     11 C11        30.2103  -43.1497  -52.8963 C.ar      11 UNK        -0.0871 
     12 C12        29.4742  -42.7128  -54.0013 C.ar      11 UNK        -0.1008 
     13 C13        30.1274  -42.2014  -55.1273 C.ar      11 UNK        -0.0735 
     14 C14        31.5251  -42.1419  -55.1457 C.ar      11 UNK        -0.0945 
     15 C15        29.3251  -41.6748  -56.3090 C.3       11 UNK         0.0169 
     16 S16        29.6562  -42.6011  -57.8395 S.3       11 UNK        -0.2669 
     17 C17        28.8125  -44.1863  -57.5110 C.3       11 UNK        -0.0850 
     18 CA         27.4006  -44.2718  -58.1465 C.3       10 UNK         0.0855 
     19 C          27.4520  -44.2233  -59.7008 C.2       10 UNK         0.5543 
     20 N          26.8997  -43.1861  -60.3153 N.am      10 UNK        -0.7343 
     21 O          28.0184  -45.1031  -60.3445 O.2       10 UNK        -0.5027 
     22 N          26.7118  -45.4789  -57.6776 N.am      10 UNK        -0.4495 
     23 C          25.4234  -45.7739  -57.9021 C.2       10 UNK         0.4903 
     24 O          24.6092  -44.9791  -58.3748 O.2       10 UNK        -0.4860 
     25 CA         24.9887  -47.2110  -57.5498 C.3       9 UNK         0.0227 
     26 CB         23.6218  -47.6047  -58.1488 C.3       9 UNK        -0.1964 
     27 N          26.0296  -48.1875  -57.8926 N.am      9 UNK        -0.4231 
     28 C          26.5228  -48.4652  -59.1114 C.2       9 UNK         0.5014 
     29 O          26.0358  -48.0541  -60.1649 O.2       9 UNK        -0.5270 
     30 CA         27.7943  -49.3296  -59.1710 C.3       8 UNK         0.0284 
     31 CB         29.0146  -48.4604  -59.5234 C.3       8 UNK        -0.1977 
     32 N          28.0504  -50.0155  -57.9014 N.am      8 UNK        -0.4342 
     33 C          27.8069  -51.3135  -57.6800 C.2       8 UNK         0.5039 
     34 O          27.4059  -52.0985  -58.5405 O.2       8 UNK        -0.5547 
     35 CA         28.0334  -51.8215  -56.2477 C.3       7 UNK         0.0281 
     36 CB         29.5179  -52.1482  -56.0147 C.3       7 UNK        -0.1963 
     37 N          27.5607  -50.8857  -55.2216 N.am      7 UNK        -0.4444 
     38 C          26.2667  -50.6062  -54.9960 C.2       7 UNK         0.5104 
     39 O          25.3443  -51.0651  -55.6691 O.2       7 UNK        -0.5100 
     40 CA         25.9288  -49.6618  -53.8334 C.3       6 UNK         0.0396 
     41 CB         25.8335  -50.4505  -52.5174 C.3       6 UNK        -0.1801 
     42 N          26.9225  -48.5997  -53.6854 N.am      6 UNK        -0.4747 
     43 C          26.6710  -47.2838  -53.7633 C.2       6 UNK         0.5012 
     44 O          25.5581  -46.7994  -53.9671 O.2       6 UNK        -0.5003 
     45 CA         27.8806  -46.3458  -53.5620 C.3       5 UNK         0.0782 
     46 C46        28.0365  -46.0621  -52.0395 C.3       11 UNK        -0.0868 
     47 S47        29.6762  -45.4634  -51.5012 S.3       11 UNK        -0.2515 
     48 C48        29.5098  -43.6602  -51.6480 C.3       11 UNK         0.0199 
     49 N          29.1138  -46.8673  -54.1568 N.am      5 UNK        -0.4607 
     50 C          29.2991  -47.3450  -55.3939 C.2       4 UNK         0.5031 
     51 O          28.4388  -47.3557  -56.2748 O.2       4 UNK        -0.5119 
     52 CA         30.6663  -47.9883  -55.6757 C.3       4 UNK         0.0263 
     53 CB         31.5817  -46.9752  -56.3785 C.3       4 UNK        -0.1967 
     54 N          31.3415  -48.5261  -54.4840 N.am      4 UNK        -0.4237 
     55 C          30.8341  -49.4234  -53.6211 C.2       3 UNK         0.4908 
     56 O          29.6833  -49.8620  -53.7005 O.2       3 UNK        -0.5102 
     57 CA         31.7293  -49.8696  -52.4476 C.3       3 UNK         0.0241 
     58 CB         31.4787  -51.3423  -52.0587 C.3       3 UNK        -0.1971 
     59 N          33.1650  -49.6108  -52.6364 N.am      3 UNK        -0.4139 
     60 C          33.9833  -50.1385  -53.5585 C.2       2 UNK         0.5016 
     61 O          33.6163  -50.9165  -54.4404 O.2       2 UNK        -0.5319 
     62 CA         35.4541  -49.6796  -53.4969 C.3       2 UNK         0.0286 
     63 CB         36.3629  -50.4826  -54.4470 C.3       2 UNK        -0.1963 
     64 N          35.5967  -48.2525  -53.8041 N.am      2 UNK        -0.4790 
     65 C          35.3254  -47.2465  -52.9619 C.2       1 UNK         0.5024 
     66 O          34.8815  -47.4164  -51.8228 O.2       1 UNK        -0.4888 
     67 H67        37.6844  -44.4866  -49.8213 H         1 UNK         0.0892 
     68 H68        38.2066  -43.2420  -50.9600 H         1 UNK         0.0892 
     69 H69        36.5096  -43.3526  -50.4905 H         1 UNK         0.0892 
     70 H70        35.2270  -44.3383  -52.0368 H         1 UNK         0.3107 
     71 H71        36.3476  -45.8598  -54.2393 H         1 UNK         0.0773 
     72 H72        33.9267  -46.0574  -54.9434 H         1 UNK         0.0680 
     73 H73        33.4382  -45.1931  -53.5105 H         1 UNK         0.0680 
     74 H74        34.2023  -42.5955  -53.0693 H         1 UNK         0.0650 
     75 H75        34.0882  -41.5263  -54.4407 H         1 UNK         0.0650 
     76 H76        32.1743  -43.4273  -52.0727 H         1 UNK         0.1397 
     77 H77        28.3937  -42.7513  -53.9764 H         1 UNK         0.1363 
     78 H78        32.0332  -41.7447  -56.0140 H         1 UNK         0.1355 
     79 H79        28.2540  -41.6955  -56.1010 H         1 UNK         0.0707 
     80 H80        29.5853  -40.6278  -56.4708 H         1 UNK         0.0707 
     81 H81        29.4448  -44.9938  -57.8837 H         1 UNK         0.1034 
     82 H82        28.7489  -44.3375  -56.4327 H         1 UNK         0.1034 
     83 H83        26.8217  -43.4185  -57.7870 H         1 UNK         0.0482 
     84 H84        26.9369  -43.1345  -61.3211 H         1 UNK         0.3460 
     85 H85        26.4361  -42.4603  -59.7923 H         1 UNK         0.3460 
     86 H86        27.3060  -46.2013  -57.2810 H         1 UNK         0.2989 
     87 H87        24.8876  -47.2438  -56.4656 H         1 UNK         0.0559 
     88 H88        22.8308  -46.9559  -57.7707 H         1 UNK         0.0848 
     89 H89        23.3541  -48.6281  -57.8861 H         1 UNK         0.0848 
     90 H90        23.6134  -47.5230  -59.2360 H         1 UNK         0.0848 
     91 H91        26.5304  -48.5668  -57.1029 H         1 UNK         0.3144 
     92 H92        27.6562  -50.0554  -59.9752 H         1 UNK         0.0727 
     93 H93        29.1766  -47.6669  -58.7940 H         1 UNK         0.0790 
     94 H94        28.8802  -47.9791  -60.4932 H         1 UNK         0.0790 
     95 H95        29.9253  -49.0567  -59.5812 H         1 UNK         0.0790 
     96 H96        28.3787  -49.4413  -57.1364 H         1 UNK         0.3215 
     97 H97        27.4660  -52.7483  -56.1355 H         1 UNK         0.0863 
     98 H98        29.6828  -52.5579  -55.0178 H         1 UNK         0.0808 
     99 H99        30.1521  -51.2681  -56.1215 H         1 UNK         0.0808 
    100 H100       29.8701  -52.8907  -56.7320 H         1 UNK         0.0808 
    101 H101       28.2744  -50.4974  -54.6069 H         1 UNK         0.3118 
    102 H102       24.9458  -49.2345  -54.0427 H         1 UNK         0.0546 
    103 H103       26.7885  -50.9029  -52.2462 H         1 UNK         0.0828 
    104 H104       25.1003  -51.2545  -52.5952 H         1 UNK         0.0828 
    105 H105       25.5223  -49.8078  -51.6939 H         1 UNK         0.0828 
    106 H106       27.8821  -48.8928  -53.5322 H         1 UNK         0.3005 
    107 H107       27.6584  -45.4075  -54.0738 H         1 UNK         0.1257 
    108 H108       27.2641  -45.3672  -51.7051 H         1 UNK         0.0775 
    109 H109       27.8705  -46.9740  -51.4608 H         1 UNK         0.0775 
    110 H110       28.4598  -43.3645  -51.6368 H         1 UNK         0.0840 
    111 H111       29.9610  -43.1955  -50.7699 H         1 UNK         0.0840 
    112 H112       29.9005  -46.8910  -53.5245 H         1 UNK         0.2987 
    113 H113       30.5011  -48.8261  -56.3548 H         1 UNK         0.0785 
    114 H114       31.1556  -46.6657  -57.3334 H         1 UNK         0.0798 
    115 H115       32.5627  -47.4001  -56.5917 H         1 UNK         0.0798 
    116 H116       31.7199  -46.0728  -55.7811 H         1 UNK         0.0798 
    117 H117       32.2934  -48.2288  -54.3347 H         1 UNK         0.3079 
    118 H118       31.4259  -49.2532  -51.6002 H         1 UNK         0.0794 
    119 H119       32.1000  -51.6417  -51.2148 H         1 UNK         0.0786 
    120 H120       31.6863  -52.0206  -52.8869 H         1 UNK         0.0786 
    121 H121       30.4401  -51.5004  -51.7651 H         1 UNK         0.0786 
    122 H122       33.5770  -48.9296  -52.0042 H         1 UNK         0.3032 
    123 H123       35.8047  -49.8586  -52.4773 H         1 UNK         0.1094 
    124 H124       36.0846  -50.3405  -55.4921 H         1 UNK         0.0794 
    125 H125       37.4081  -50.1932  -54.3355 H         1 UNK         0.0794 
    126 H126       36.3011  -51.5512  -54.2358 H         1 UNK         0.0794 
    127 H127       35.9258  -48.0304  -54.7335 H         1 UNK         0.3016 
@<TRIPOS>BOND
     1    1    2 1    
     2    1   67 1    
     3    1   68 1    
     4    1   69 1    
     5    2    3 2    
     6    2    4 am   BACKBONE|DICT|INTERRES
     7    4    5 1    
     8    4   70 1    
     9    5    6 1    
    10    5   65 1    
    11    5   71 1    
    12    6    7 1    
    13    6   72 1    
    14    6   73 1    
    15    7    8 1    
    16    8    9 1    
    17    8   74 1    
    18    8   75 1    
    19    9   10 ar   
    20    9   14 ar   
    21   10   11 ar   
    22   10   76 1    
    23   11   12 ar   
    24   11   48 1    
    25   12   13 ar   
    26   12   77 1    
    27   13   14 ar   
    28   13   15 1    
    29   14   78 1    
    30   15   16 1    
    31   15   79 1    
    32   15   80 1    
    33   16   17 1    
    34   17   18 1    
    35   17   81 1    
    36   17   82 1    
    37   18   19 1    
    38   18   22 1    
    39   18   83 1    
    40   19   20 am   BACKBONE|DICT|INTERRES
    41   19   21 2    
    42   20   84 1    
    43   20   85 1    
    44   22   23 am   BACKBONE|DICT|INTERRES
    45   22   86 1    
    46   23   24 2    
    47   23   25 1    
    48   25   26 1    
    49   25   27 1    
    50   25   87 1    
    51   26   88 1    
    52   26   89 1    
    53   26   90 1    
    54   27   28 am   BACKBONE|DICT|INTERRES
    55   27   91 1    
    56   28   29 2    
    57   28   30 1    
    58   30   31 1    
    59   30   32 1    
    60   30   92 1    
    61   31   93 1    
    62   31   94 1    
    63   31   95 1    
    64   32   33 am   BACKBONE|DICT|INTERRES
    65   32   96 1    
    66   33   34 2    
    67   33   35 1    
    68   35   36 1    
    69   35   37 1    
    70   35   97 1    
    71   36   98 1    
    72   36   99 1    
    73   36  100 1    
    74   37   38 am   BACKBONE|DICT|INTERRES
    75   37  101 1    
    76   38   39 2    
    77   38   40 1    
    78   40   41 1    
    79   40   42 1    
    80   40  102 1    
    81   41  103 1    
    82   41  104 1    
    83   41  105 1    
    84   42   43 am   BACKBONE|DICT|INTERRES
    85   42  106 1    
    86   43   44 2    
    87   43   45 1    
    88   45   46 1    
    89   45   49 1    
    90   45  107 1    
    91   46   47 1    
    92   46  108 1    
    93   46  109 1    
    94   47   48 1    
    95   48  110 1    
    96   48  111 1    
    97   49   50 am   BACKBONE|DICT|INTERRES
    98   49  112 1    
    99   50   51 2    
   100   50   52 1    
   101   52   53 1    
   102   52   54 1    
   103   52  113 1    
   104   53  114 1    
   105   53  115 1    
   106   53  116 1    
   107   54   55 am   BACKBONE|DICT|INTERRES
   108   54  117 1    
   109   55   56 2    
   110   55   57 1    
   111   57   58 1    
   112   57   59 1    
   113   57  118 1    
   114   58  119 1    
   115   58  120 1    
   116   58  121 1    
   117   59   60 am   BACKBONE|DICT|INTERRES
   118   59  122 1    
   119   60   61 2    
   120   60   62 1    
   121   62   63 1    
   122   62   64 1    
   123   62  123 1    
   124   63  124 1    
   125   63  125 1    
   126   63  126 1    
   127   64   65 am   BACKBONE|DICT|INTERRES
   128   64  127 1    
   129   65   66 2    
@<TRIPOS>SUBSTRUCTURE
     1 UNK         1 GROUP             0       ****    0 ROOT    
