@<TRIPOS>MOLECULE
3R134
127   129    1
SMALL
USER_CHARGES


@<TRIPOS>ATOM
      1 CA         30.6544  -46.6808  -48.9031 C.3       0 UNK        -0.1968 
      2 C          32.0133  -46.1457  -49.3312 C.2       0 UNK         0.4852 
      3 O          32.9986  -46.3394  -48.6179 O.2       0 UNK        -0.5359 
      4 N          32.0694  -45.4748  -50.4903 N.am      1 UNK        -0.4300 
      5 CA         33.2907  -44.9363  -51.1053 C.3       1 UNK         0.0863 
      6 C6         32.9279  -43.9862  -52.2742 C.3       11 UNK        -0.0953 
      7 S7         34.2368  -42.7864  -52.6975 S.3       11 UNK        -0.2369 
      8 C8         33.3029  -41.5370  -53.6562 C.3       11 UNK         0.0226 
      9 C9         32.4080  -42.1728  -54.7134 C.ar      11 UNK        -0.0699 
     10 C10        32.9699  -42.9687  -55.7150 C.ar      11 UNK        -0.0804 
     11 C11        32.1503  -43.6920  -56.5833 C.ar      11 UNK        -0.0871 
     12 C12        30.7618  -43.5634  -56.4931 C.ar      11 UNK        -0.1008 
     13 C13        30.1871  -42.7427  -55.5197 C.ar      11 UNK        -0.0735 
     14 C14        31.0163  -42.0439  -54.6354 C.ar      11 UNK        -0.0945 
     15 C15        28.6745  -42.6976  -55.3535 C.3       11 UNK         0.0169 
     16 S16        27.8795  -41.4264  -56.3883 S.3       11 UNK        -0.2669 
     17 C17        27.8395  -42.1955  -58.0463 C.3       11 UNK        -0.0850 
     18 CA         26.5232  -42.9683  -58.3244 C.3       10 UNK         0.0855 
     19 C          26.4230  -43.3636  -59.8200 C.2       10 UNK         0.5543 
     20 N          25.6366  -42.6410  -60.6050 N.am      10 UNK        -0.7343 
     21 O          27.0881  -44.2902  -60.2792 O.2       10 UNK        -0.5027 
     22 N          26.4050  -44.1633  -57.4791 N.am      10 UNK        -0.4495 
     23 C          25.2486  -44.7034  -57.0802 C.2       10 UNK         0.4903 
     24 O          24.1430  -44.2060  -57.3025 O.2       10 UNK        -0.4860 
     25 CA         25.3662  -46.0283  -56.3029 C.3       9 UNK         0.0227 
     26 CB         24.0001  -46.6156  -55.8894 C.3       9 UNK        -0.1964 
     27 N          26.1676  -47.0280  -57.0182 N.am      9 UNK        -0.4231 
     28 C          25.9233  -47.5626  -58.2255 C.2       9 UNK         0.5014 
     29 O          24.9620  -47.2687  -58.9375 O.2       9 UNK        -0.5270 
     30 CA         26.9176  -48.6298  -58.7169 C.3       8 UNK         0.0284 
     31 CB         28.1626  -47.9684  -59.3312 C.3       8 UNK        -0.1977 
     32 N          27.3196  -49.5654  -57.6615 N.am      8 UNK        -0.4342 
     33 C          26.4992  -50.4467  -57.0692 C.2       8 UNK         0.5039 
     34 O          25.3267  -50.6236  -57.4028 O.2       8 UNK        -0.5547 
     35 CA         27.0734  -51.2606  -55.8954 C.3       7 UNK         0.0281 
     36 CB         27.8791  -52.4678  -56.4017 C.3       7 UNK        -0.1963 
     37 N          27.8984  -50.4485  -54.9975 N.am      7 UNK        -0.4444 
     38 C          27.4230  -49.4644  -54.2192 C.2       7 UNK         0.5104 
     39 O          26.2275  -49.1940  -54.1064 O.2       7 UNK        -0.5100 
     40 CA         28.4559  -48.6137  -53.4607 C.3       6 UNK         0.0396 
     41 CB         28.8250  -49.2681  -52.1203 C.3       6 UNK        -0.1801 
     42 N          29.6715  -48.3718  -54.2396 N.am      6 UNK        -0.4747 
     43 C          29.7239  -47.6648  -55.3773 C.2       6 UNK         0.5012 
     44 O          28.7533  -47.0883  -55.8691 O.2       6 UNK        -0.5003 
     45 CA         31.0745  -47.6310  -56.1163 C.3       5 UNK         0.0782 
     46 C46        32.0290  -46.5987  -55.4836 C.3       11 UNK        -0.0868 
     47 S47        33.4080  -46.1628  -56.6035 S.3       11 UNK        -0.2515 
     48 C48        32.7570  -44.7220  -57.5217 C.3       11 UNK         0.0199 
     49 N          31.6914  -48.9558  -56.1787 N.am      5 UNK        -0.4607 
     50 C          31.1987  -50.0035  -56.8474 C.2       4 UNK         0.5031 
     51 O          30.1721  -49.9621  -57.5235 O.2       4 UNK        -0.5119 
     52 CA         31.9656  -51.3277  -56.7017 C.3       4 UNK         0.0263 
     53 CB         33.1062  -51.4055  -57.7284 C.3       4 UNK        -0.1967 
     54 N          32.5037  -51.5191  -55.3505 N.am      4 UNK        -0.4237 
     55 C          31.7465  -51.7093  -54.2602 C.2       3 UNK         0.4908 
     56 O          30.5166  -51.7727  -54.2831 O.2       3 UNK        -0.5102 
     57 CA         32.4873  -51.7964  -52.9138 C.3       3 UNK         0.0241 
     58 CB         33.1599  -53.1688  -52.7461 C.3       3 UNK        -0.1971 
     59 N          33.4760  -50.7270  -52.7153 N.am      3 UNK        -0.4139 
     60 C          33.1710  -49.4231  -52.6781 C.2       2 UNK         0.5016 
     61 O          32.0304  -48.9876  -52.8581 O.2       2 UNK        -0.5319 
     62 CA         34.3123  -48.4298  -52.4172 C.3       2 UNK         0.0286 
     63 CB         35.2096  -48.2740  -53.6608 C.3       2 UNK        -0.1963 
     64 N          33.6845  -47.1608  -52.0556 N.am      2 UNK        -0.4790 
     65 C          34.2567  -46.0644  -51.5443 C.2       1 UNK         0.5024 
     66 O          35.4697  -45.9411  -51.3694 O.2       1 UNK        -0.4888 
     67 H67        29.8698  -46.4219  -49.6140 H         1 UNK         0.0892 
     68 H68        30.6895  -47.7668  -48.8195 H         1 UNK         0.0892 
     69 H69        30.3791  -46.2724  -47.9311 H         1 UNK         0.0892 
     70 H70        31.2186  -45.3378  -51.0168 H         1 UNK         0.3107 
     71 H71        33.8002  -44.3530  -50.3350 H         1 UNK         0.0773 
     72 H72        32.0448  -43.4019  -52.0095 H         1 UNK         0.0680 
     73 H73        32.6557  -44.5510  -53.1679 H         1 UNK         0.0680 
     74 H74        34.0067  -40.8578  -54.1388 H         1 UNK         0.0650 
     75 H75        32.7142  -40.9334  -52.9637 H         1 UNK         0.0650 
     76 H76        34.0427  -43.1003  -55.7566 H         1 UNK         0.1397 
     77 H77        30.1301  -44.1622  -57.1333 H         1 UNK         0.1363 
     78 H78        30.5750  -41.4412  -53.8534 H         1 UNK         0.1355 
     79 H79        28.4295  -42.4875  -54.3113 H         1 UNK         0.0707 
     80 H80        28.2458  -43.6780  -55.5607 H         1 UNK         0.0707 
     81 H81        27.9484  -41.3813  -58.7656 H         1 UNK         0.1034 
     82 H82        28.7089  -42.8318  -58.2009 H         1 UNK         0.1034 
     83 H83        25.6940  -42.2957  -58.0935 H         1 UNK         0.0482 
     84 H84        25.5731  -42.8747  -61.5837 H         1 UNK         0.3460 
     85 H85        25.0947  -41.8742  -60.2372 H         1 UNK         0.3460 
     86 H86        27.2569  -44.6763  -57.3105 H         1 UNK         0.2989 
     87 H87        25.9142  -45.8010  -55.3872 H         1 UNK         0.0559 
     88 H88        23.4455  -45.9130  -55.2666 H         1 UNK         0.0848 
     89 H89        24.1238  -47.5328  -55.3130 H         1 UNK         0.0848 
     90 H90        23.3772  -46.8453  -56.7544 H         1 UNK         0.0848 
     91 H91        27.0366  -47.2909  -56.5567 H         1 UNK         0.3144 
     92 H92        26.4221  -49.2078  -59.4999 H         1 UNK         0.0727 
     93 H93        28.7243  -47.3956  -58.5935 H         1 UNK         0.0790 
     94 H94        27.8837  -47.2813  -60.1316 H         1 UNK         0.0790 
     95 H95        28.8353  -48.7114  -59.7601 H         1 UNK         0.0790 
     96 H96        28.2998  -49.5557  -57.3898 H         1 UNK         0.3215 
     97 H97        26.2297  -51.6409  -55.3150 H         1 UNK         0.0863 
     98 H98        28.2463  -53.0749  -55.5740 H         1 UNK         0.0808 
     99 H99        28.7380  -52.1627  -56.9986 H         1 UNK         0.0808 
    100 H100       27.2607  -53.1121  -57.0279 H         1 UNK         0.0808 
    101 H101       28.8920  -50.6529  -54.9678 H         1 UNK         0.3118 
    102 H102       27.9977  -47.6450  -53.2509 H         1 UNK         0.0546 
    103 H103       29.3204  -50.2291  -52.2637 H         1 UNK         0.0828 
    104 H104       27.9364  -49.4444  -51.5128 H         1 UNK         0.0828 
    105 H105       29.4945  -48.6327  -51.5404 H         1 UNK         0.0828 
    106 H106       30.5337  -48.7674  -53.8664 H         1 UNK         0.3005 
    107 H107       30.8561  -47.3181  -57.1399 H         1 UNK         0.1257 
    108 H108       31.4948  -45.7078  -55.1610 H         1 UNK         0.0775 
    109 H109       32.4586  -46.9952  -54.5654 H         1 UNK         0.0775 
    110 H110       33.5657  -44.2657  -58.0942 H         1 UNK         0.0840 
    111 H111       32.0209  -45.0659  -58.2500 H         1 UNK         0.0840 
    112 H112       32.5313  -49.0825  -55.6361 H         1 UNK         0.2987 
    113 H113       31.2655  -52.1405  -56.9058 H         1 UNK         0.0785 
    114 H114       32.7244  -51.2849  -58.7433 H         1 UNK         0.0798 
    115 H115       33.6119  -52.3704  -57.6875 H         1 UNK         0.0798 
    116 H116       33.8528  -50.6267  -57.5670 H         1 UNK         0.0798 
    117 H117       33.5070  -51.4831  -55.2433 H         1 UNK         0.3079 
    118 H118       31.7356  -51.6935  -52.1279 H         1 UNK         0.0794 
    119 H119       33.5842  -53.2825  -51.7483 H         1 UNK         0.0786 
    120 H120       33.9607  -53.3222  -53.4705 H         1 UNK         0.0786 
    121 H121       32.4383  -53.9758  -52.8819 H         1 UNK         0.0786 
    122 H122       34.4330  -51.0125  -52.5631 H         1 UNK         0.3032 
    123 H123       34.9025  -48.7838  -51.5695 H         1 UNK         0.1094 
    124 H124       34.6461  -47.9392  -54.5305 H         1 UNK         0.0794 
    125 H125       36.0114  -47.5559  -53.4904 H         1 UNK         0.0794 
    126 H126       35.6829  -49.2201  -53.9253 H         1 UNK         0.0794 
    127 H127       32.6744  -47.1991  -52.1320 H         1 UNK         0.3016 
@<TRIPOS>BOND
     1    1    2 1    
     2    1   67 1    
     3    1   68 1    
     4    1   69 1    
     5    2    3 2    
     6    2    4 am   BACKBONE|DICT|INTERRES
     7    4    5 1    
     8    4   70 1    
     9    5    6 1    
    10    5   65 1    
    11    5   71 1    
    12    6    7 1    
    13    6   72 1    
    14    6   73 1    
    15    7    8 1    
    16    8    9 1    
    17    8   74 1    
    18    8   75 1    
    19    9   10 ar   
    20    9   14 ar   
    21   10   11 ar   
    22   10   76 1    
    23   11   12 ar   
    24   11   48 1    
    25   12   13 ar   
    26   12   77 1    
    27   13   14 ar   
    28   13   15 1    
    29   14   78 1    
    30   15   16 1    
    31   15   79 1    
    32   15   80 1    
    33   16   17 1    
    34   17   18 1    
    35   17   81 1    
    36   17   82 1    
    37   18   19 1    
    38   18   22 1    
    39   18   83 1    
    40   19   20 am   BACKBONE|DICT|INTERRES
    41   19   21 2    
    42   20   84 1    
    43   20   85 1    
    44   22   23 am   BACKBONE|DICT|INTERRES
    45   22   86 1    
    46   23   24 2    
    47   23   25 1    
    48   25   26 1    
    49   25   27 1    
    50   25   87 1    
    51   26   88 1    
    52   26   89 1    
    53   26   90 1    
    54   27   28 am   BACKBONE|DICT|INTERRES
    55   27   91 1    
    56   28   29 2    
    57   28   30 1    
    58   30   31 1    
    59   30   32 1    
    60   30   92 1    
    61   31   93 1    
    62   31   94 1    
    63   31   95 1    
    64   32   33 am   BACKBONE|DICT|INTERRES
    65   32   96 1    
    66   33   34 2    
    67   33   35 1    
    68   35   36 1    
    69   35   37 1    
    70   35   97 1    
    71   36   98 1    
    72   36   99 1    
    73   36  100 1    
    74   37   38 am   BACKBONE|DICT|INTERRES
    75   37  101 1    
    76   38   39 2    
    77   38   40 1    
    78   40   41 1    
    79   40   42 1    
    80   40  102 1    
    81   41  103 1    
    82   41  104 1    
    83   41  105 1    
    84   42   43 am   BACKBONE|DICT|INTERRES
    85   42  106 1    
    86   43   44 2    
    87   43   45 1    
    88   45   46 1    
    89   45   49 1    
    90   45  107 1    
    91   46   47 1    
    92   46  108 1    
    93   46  109 1    
    94   47   48 1    
    95   48  110 1    
    96   48  111 1    
    97   49   50 am   BACKBONE|DICT|INTERRES
    98   49  112 1    
    99   50   51 2    
   100   50   52 1    
   101   52   53 1    
   102   52   54 1    
   103   52  113 1    
   104   53  114 1    
   105   53  115 1    
   106   53  116 1    
   107   54   55 am   BACKBONE|DICT|INTERRES
   108   54  117 1    
   109   55   56 2    
   110   55   57 1    
   111   57   58 1    
   112   57   59 1    
   113   57  118 1    
   114   58  119 1    
   115   58  120 1    
   116   58  121 1    
   117   59   60 am   BACKBONE|DICT|INTERRES
   118   59  122 1    
   119   60   61 2    
   120   60   62 1    
   121   62   63 1    
   122   62   64 1    
   123   62  123 1    
   124   63  124 1    
   125   63  125 1    
   126   63  126 1    
   127   64   65 am   BACKBONE|DICT|INTERRES
   128   64  127 1    
   129   65   66 2    
@<TRIPOS>SUBSTRUCTURE
     1 UNK         1 GROUP             0       ****    0 ROOT    
