@<TRIPOS>MOLECULE
3R134
127   129    1
SMALL
USER_CHARGES


@<TRIPOS>ATOM
      1 CA         31.4625  -49.7145  -57.4965 C.3       0 UNK        -0.1968 
      2 C          32.4406  -48.6341  -57.0687 C.2       0 UNK         0.4852 
      3 O          33.4869  -48.4826  -57.7000 O.2       0 UNK        -0.5359 
      4 N          32.1281  -47.9157  -55.9793 N.am      1 UNK        -0.4300 
      5 CA         32.9388  -46.8825  -55.3200 C.3       1 UNK         0.0863 
      6 C6         33.3489  -45.7119  -56.2571 C.3       11 UNK        -0.0953 
      7 S7         34.2060  -44.3492  -55.3976 S.3       11 UNK        -0.2369 
      8 C8         33.0418  -42.9647  -55.6010 C.3       11 UNK         0.0226 
      9 C9         31.8159  -43.0724  -54.7023 C.ar      11 UNK        -0.0699 
     10 C10        31.9625  -43.2056  -53.3182 C.ar      11 UNK        -0.0804 
     11 C11        30.8418  -43.2374  -52.4857 C.ar      11 UNK        -0.0871 
     12 C12        29.5674  -43.1168  -53.0466 C.ar      11 UNK        -0.1008 
     13 C13        29.3974  -42.9814  -54.4273 C.ar      11 UNK        -0.0735 
     14 C14        30.5331  -42.9738  -55.2507 C.ar      11 UNK        -0.0945 
     15 C15        27.9687  -42.8436  -54.9606 C.3       11 UNK         0.0169 
     16 S16        27.8174  -42.3705  -56.7179 S.3       11 UNK        -0.2669 
     17 C17        26.0001  -42.3761  -56.9083 C.3       11 UNK        -0.0850 
     18 CA         25.5242  -42.6661  -58.3565 C.3       10 UNK         0.0855 
     19 C          25.7175  -41.4429  -59.3014 C.2       10 UNK         0.5543 
     20 N          26.4595  -41.5568  -60.3965 N.am      10 UNK        -0.7343 
     21 O          25.1676  -40.3750  -59.0428 O.2       10 UNK        -0.5027 
     22 N          26.0763  -43.9345  -58.8577 N.am      10 UNK        -0.4495 
     23 C          25.5082  -44.7124  -59.7872 C.2       10 UNK         0.4903 
     24 O          24.4246  -44.4630  -60.3165 O.2       10 UNK        -0.4860 
     25 CA         26.2726  -45.9802  -60.2174 C.3       9 UNK         0.0227 
     26 CB         26.8681  -45.7926  -61.6231 C.3       9 UNK        -0.1964 
     27 N          27.3413  -46.3902  -59.2979 N.am      9 UNK        -0.4231 
     28 C          27.1472  -46.9071  -58.0772 C.2       9 UNK         0.5014 
     29 O          26.0361  -47.0602  -57.5638 O.2       9 UNK        -0.5270 
     30 CA         28.4202  -47.2772  -57.2949 C.3       8 UNK         0.0284 
     31 CB         29.0041  -46.0378  -56.5999 C.3       8 UNK        -0.1977 
     32 N          28.1617  -48.3122  -56.2919 N.am      8 UNK        -0.4342 
     33 C          27.9126  -49.5989  -56.5783 C.2       8 UNK         0.5039 
     34 O          27.9384  -50.0536  -57.7232 O.2       8 UNK        -0.5547 
     35 CA         27.6154  -50.5578  -55.4104 C.3       7 UNK         0.0281 
     36 CB         28.7287  -51.6109  -55.2621 C.3       7 UNK        -0.1963 
     37 N          27.4478  -49.8650  -54.1320 N.am      7 UNK        -0.4444 
     38 C          26.2801  -49.4103  -53.6574 C.2       7 UNK         0.5104 
     39 O          25.2035  -49.5522  -54.2372 O.2       7 UNK        -0.5100 
     40 CA         26.3093  -48.6789  -52.3013 C.3       6 UNK         0.0396 
     41 CB         25.8214  -49.6125  -51.1818 C.3       6 UNK        -0.1801 
     42 N          27.6290  -48.1512  -51.9405 N.am      6 UNK        -0.4747 
     43 C          28.2403  -47.1285  -52.5571 C.2       6 UNK         0.5012 
     44 O          27.7506  -46.5138  -53.5028 O.2       6 UNK        -0.5003 
     45 CA         29.6591  -46.7772  -52.0679 C.3       5 UNK         0.0782 
     46 C46        29.5915  -45.8165  -50.8570 C.3       11 UNK        -0.0868 
     47 S47        31.2269  -45.1091  -50.4686 S.3       11 UNK        -0.2515 
     48 C48        31.0112  -43.3736  -50.9789 C.3       11 UNK         0.0199 
     49 N          30.4409  -47.9815  -51.7567 N.am      5 UNK        -0.4607 
     50 C          30.7835  -48.9238  -52.6407 C.2       4 UNK         0.5031 
     51 O          30.5129  -48.8718  -53.8448 O.2       4 UNK        -0.5119 
     52 CA         31.4810  -50.1635  -52.0765 C.3       4 UNK         0.0263 
     53 CB         30.4280  -51.1880  -51.6058 C.3       4 UNK        -0.1967 
     54 N          32.3269  -50.7214  -53.1255 N.am      4 UNK        -0.4237 
     55 C          33.2224  -51.7072  -52.9918 C.2       3 UNK         0.4908 
     56 O          33.4282  -52.3224  -51.9452 O.2       3 UNK        -0.5102 
     57 CA         34.0522  -52.0376  -54.2428 C.3       3 UNK         0.0241 
     58 CB         33.1805  -52.6830  -55.3345 C.3       3 UNK        -0.1971 
     59 N          34.7119  -50.8421  -54.7718 N.am      3 UNK        -0.4139 
     60 C          35.7522  -50.2264  -54.1891 C.2       2 UNK         0.5016 
     61 O          36.3460  -50.6599  -53.2013 O.2       2 UNK        -0.5319 
     62 CA         36.1920  -48.8869  -54.8043 C.3       2 UNK         0.0286 
     63 CB         37.2173  -49.1123  -55.9267 C.3       2 UNK        -0.1963 
     64 N          35.0609  -48.1162  -55.3257 N.am      2 UNK        -0.4790 
     65 C          34.1223  -47.5282  -54.5714 C.2       1 UNK         0.5024 
     66 O          34.1387  -47.5237  -53.3404 O.2       1 UNK        -0.4888 
     67 H67        30.7807  -49.9750  -56.6904 H         1 UNK         0.0892 
     68 H68        30.8763  -49.3785  -58.3510 H         1 UNK         0.0892 
     69 H69        31.9978  -50.6176  -57.7883 H         1 UNK         0.0892 
     70 H70        31.2927  -48.1666  -55.4558 H         1 UNK         0.3107 
     71 H71        32.2875  -46.4578  -54.5534 H         1 UNK         0.0773 
     72 H72        34.0085  -46.0552  -57.0544 H         1 UNK         0.0680 
     73 H73        32.4610  -45.3198  -56.7551 H         1 UNK         0.0680 
     74 H74        32.7579  -42.8879  -56.6518 H         1 UNK         0.0650 
     75 H75        33.5638  -42.0383  -55.3587 H         1 UNK         0.0650 
     76 H76        32.9523  -43.2778  -52.8879 H         1 UNK         0.1397 
     77 H77        28.6972  -43.1218  -52.4045 H         1 UNK         0.1363 
     78 H78        30.4324  -42.8683  -56.3208 H         1 UNK         0.1355 
     79 H79        27.4454  -42.0917  -54.3678 H         1 UNK         0.0707 
     80 H80        27.4432  -43.7844  -54.7938 H         1 UNK         0.0707 
     81 H81        25.5819  -43.1359  -56.2462 H         1 UNK         0.1034 
     82 H82        25.6020  -41.4257  -56.5472 H         1 UNK         0.1034 
     83 H83        24.4418  -42.7963  -58.2966 H         1 UNK         0.0482 
     84 H84        26.9125  -42.4288  -60.6150 H         1 UNK         0.3460 
     85 H85        26.5720  -40.7603  -61.0036 H         1 UNK         0.3460 
     86 H86        26.9743  -44.1982  -58.4809 H         1 UNK         0.2989 
     87 H87        25.5438  -46.7921  -60.2652 H         1 UNK         0.0559 
     88 H88        26.0951  -45.5179  -62.3424 H         1 UNK         0.0848 
     89 H89        27.3291  -46.7116  -61.9858 H         1 UNK         0.0848 
     90 H90        27.6237  -45.0063  -61.6424 H         1 UNK         0.0848 
     91 H91        28.2880  -46.2890  -59.6360 H         1 UNK         0.3144 
     92 H92        29.1612  -47.6623  -57.9978 H         1 UNK         0.0727 
     93 H93        28.2697  -45.5767  -55.9420 H         1 UNK         0.0790 
     94 H94        29.3110  -45.2826  -57.3243 H         1 UNK         0.0790 
     95 H95        29.8778  -46.2807  -55.9970 H         1 UNK         0.0790 
     96 H96        28.0599  -47.9986  -55.3360 H         1 UNK         0.3215 
     97 H97        26.6920  -51.0841  -55.6624 H         1 UNK         0.0863 
     98 H98        29.6768  -51.1655  -54.9630 H         1 UNK         0.0808 
     99 H99        28.8983  -52.1395  -56.2012 H         1 UNK         0.0808 
    100 H100       28.4636  -52.3607  -54.5167 H         1 UNK         0.0808 
    101 H101       28.2908  -49.6707  -53.6100 H         1 UNK         0.3118 
    102 H102       25.6165  -47.8375  -52.3699 H         1 UNK         0.0546 
    103 H103       26.4822  -50.4709  -51.0537 H         1 UNK         0.0828 
    104 H104       24.8254  -49.9993  -51.4024 H         1 UNK         0.0828 
    105 H105       25.7580  -49.0901  -50.2271 H         1 UNK         0.0828 
    106 H106       28.1049  -48.6019  -51.1721 H         1 UNK         0.3005 
    107 H107       30.1540  -46.2601  -52.8941 H         1 UNK         0.1257 
    108 H108       29.2253  -46.3390  -49.9713 H         1 UNK         0.0775 
    109 H109       28.8813  -45.0076  -51.0324 H         1 UNK         0.0775 
    110 H110       30.1584  -42.9411  -50.4532 H         1 UNK         0.0840 
    111 H111       31.8832  -42.8024  -50.6566 H         1 UNK         0.0840 
    112 H112       30.7199  -48.0884  -50.7920 H         1 UNK         0.2987 
    113 H113       32.1151  -49.8664  -51.2386 H         1 UNK         0.0785 
    114 H114       29.7576  -50.7530  -50.8636 H         1 UNK         0.0798 
    115 H115       30.8916  -52.0569  -51.1394 H         1 UNK         0.0798 
    116 H116       29.8133  -51.5447  -52.4324 H         1 UNK         0.0798 
    117 H117       32.2216  -50.2587  -54.0174 H         1 UNK         0.3079 
    118 H118       34.8226  -52.7570  -53.9559 H         1 UNK         0.0794 
    119 H119       33.7781  -52.9681  -56.2007 H         1 UNK         0.0786 
    120 H120       32.3887  -52.0176  -55.6786 H         1 UNK         0.0786 
    121 H121       32.7017  -53.5896  -54.9617 H         1 UNK         0.0786 
    122 H122       34.3167  -50.4195  -55.5981 H         1 UNK         0.3032 
    123 H123       36.6685  -48.3023  -54.0138 H         1 UNK         0.1094 
    124 H124       36.7909  -49.6737  -56.7591 H         1 UNK         0.0794 
    125 H125       37.5909  -48.1655  -56.3173 H         1 UNK         0.0794 
    126 H126       38.0787  -49.6733  -55.5611 H         1 UNK         0.0794 
    127 H127       34.9134  -48.1178  -56.3311 H         1 UNK         0.3016 
@<TRIPOS>BOND
     1    1    2 1    
     2    1   67 1    
     3    1   68 1    
     4    1   69 1    
     5    2    3 2    
     6    2    4 am   BACKBONE|DICT|INTERRES
     7    4    5 1    
     8    4   70 1    
     9    5    6 1    
    10    5   65 1    
    11    5   71 1    
    12    6    7 1    
    13    6   72 1    
    14    6   73 1    
    15    7    8 1    
    16    8    9 1    
    17    8   74 1    
    18    8   75 1    
    19    9   10 ar   
    20    9   14 ar   
    21   10   11 ar   
    22   10   76 1    
    23   11   12 ar   
    24   11   48 1    
    25   12   13 ar   
    26   12   77 1    
    27   13   14 ar   
    28   13   15 1    
    29   14   78 1    
    30   15   16 1    
    31   15   79 1    
    32   15   80 1    
    33   16   17 1    
    34   17   18 1    
    35   17   81 1    
    36   17   82 1    
    37   18   19 1    
    38   18   22 1    
    39   18   83 1    
    40   19   20 am   BACKBONE|DICT|INTERRES
    41   19   21 2    
    42   20   84 1    
    43   20   85 1    
    44   22   23 am   BACKBONE|DICT|INTERRES
    45   22   86 1    
    46   23   24 2    
    47   23   25 1    
    48   25   26 1    
    49   25   27 1    
    50   25   87 1    
    51   26   88 1    
    52   26   89 1    
    53   26   90 1    
    54   27   28 am   BACKBONE|DICT|INTERRES
    55   27   91 1    
    56   28   29 2    
    57   28   30 1    
    58   30   31 1    
    59   30   32 1    
    60   30   92 1    
    61   31   93 1    
    62   31   94 1    
    63   31   95 1    
    64   32   33 am   BACKBONE|DICT|INTERRES
    65   32   96 1    
    66   33   34 2    
    67   33   35 1    
    68   35   36 1    
    69   35   37 1    
    70   35   97 1    
    71   36   98 1    
    72   36   99 1    
    73   36  100 1    
    74   37   38 am   BACKBONE|DICT|INTERRES
    75   37  101 1    
    76   38   39 2    
    77   38   40 1    
    78   40   41 1    
    79   40   42 1    
    80   40  102 1    
    81   41  103 1    
    82   41  104 1    
    83   41  105 1    
    84   42   43 am   BACKBONE|DICT|INTERRES
    85   42  106 1    
    86   43   44 2    
    87   43   45 1    
    88   45   46 1    
    89   45   49 1    
    90   45  107 1    
    91   46   47 1    
    92   46  108 1    
    93   46  109 1    
    94   47   48 1    
    95   48  110 1    
    96   48  111 1    
    97   49   50 am   BACKBONE|DICT|INTERRES
    98   49  112 1    
    99   50   51 2    
   100   50   52 1    
   101   52   53 1    
   102   52   54 1    
   103   52  113 1    
   104   53  114 1    
   105   53  115 1    
   106   53  116 1    
   107   54   55 am   BACKBONE|DICT|INTERRES
   108   54  117 1    
   109   55   56 2    
   110   55   57 1    
   111   57   58 1    
   112   57   59 1    
   113   57  118 1    
   114   58  119 1    
   115   58  120 1    
   116   58  121 1    
   117   59   60 am   BACKBONE|DICT|INTERRES
   118   59  122 1    
   119   60   61 2    
   120   60   62 1    
   121   62   63 1    
   122   62   64 1    
   123   62  123 1    
   124   63  124 1    
   125   63  125 1    
   126   63  126 1    
   127   64   65 am   BACKBONE|DICT|INTERRES
   128   64  127 1    
   129   65   66 2    
@<TRIPOS>SUBSTRUCTURE
     1 UNK         1 GROUP             0       ****    0 ROOT    
