@<TRIPOS>MOLECULE
3R134
127   129    1
SMALL
USER_CHARGES


@<TRIPOS>ATOM
      1 CA         29.6023  -45.0592  -48.9375 C.3       0 UNK        -0.1968 
      2 C          30.8113  -45.7758  -49.5209 C.2       0 UNK         0.4852 
      3 O          31.6962  -46.1930  -48.7733 O.2       0 UNK        -0.5359 
      4 N          30.8476  -45.9318  -50.8510 N.am      1 UNK        -0.4300 
      5 CA         31.9411  -46.5666  -51.6040 C.3       1 UNK         0.0863 
      6 C6         32.0088  -46.0544  -53.0681 C.3       11 UNK        -0.0953 
      7 S7         32.1681  -44.2372  -53.1401 S.3       11 UNK        -0.2369 
      8 C8         30.7268  -43.7517  -54.1556 C.3       11 UNK         0.0226 
      9 C9         30.9891  -43.5674  -55.6536 C.ar      11 UNK        -0.0699 
     10 C10        32.2653  -43.6566  -56.2257 C.ar      11 UNK        -0.0804 
     11 C11        32.4561  -43.4225  -57.5899 C.ar      11 UNK        -0.0871 
     12 C12        31.3587  -43.0963  -58.3906 C.ar      11 UNK        -0.1008 
     13 C13        30.0746  -43.0002  -57.8448 C.ar      11 UNK        -0.0735 
     14 C14        29.9040  -43.2420  -56.4744 C.ar      11 UNK        -0.0945 
     15 C15        28.9253  -42.5847  -58.7693 C.3       11 UNK         0.0169 
     16 S16        27.2363  -42.7779  -58.1005 S.3       11 UNK        -0.2669 
     17 C17        26.9751  -44.5786  -58.2513 C.3       11 UNK        -0.0850 
     18 CA         25.6407  -45.0202  -57.5956 C.3       10 UNK         0.0855 
     19 C          25.2585  -46.4810  -57.9775 C.2       10 UNK         0.5543 
     20 N          25.1024  -47.4077  -57.0377 N.am      10 UNK        -0.7343 
     21 O          25.0597  -46.7677  -59.1557 O.2       10 UNK        -0.5027 
     22 N          25.6415  -44.7614  -56.1490 N.am      10 UNK        -0.4495 
     23 C          24.5436  -44.5563  -55.4101 C.2       10 UNK         0.4903 
     24 O          23.4114  -44.4570  -55.8864 O.2       10 UNK        -0.4860 
     25 CA         24.7408  -44.4389  -53.8824 C.3       9 UNK         0.0227 
     26 CB         23.4900  -44.8796  -53.0919 C.3       9 UNK        -0.1964 
     27 N          25.9381  -45.1283  -53.3783 N.am      9 UNK        -0.4231 
     28 C          26.2306  -46.4313  -53.5043 C.2       9 UNK         0.5014 
     29 O          25.5002  -47.2592  -54.0552 O.2       9 UNK        -0.5270 
     30 CA         27.5806  -46.8768  -52.9184 C.3       8 UNK         0.0284 
     31 CB         27.3704  -47.5420  -51.5490 C.3       8 UNK        -0.1977 
     32 N          28.2931  -47.7986  -53.8064 N.am      8 UNK        -0.4342 
     33 C          28.6637  -47.5287  -55.0654 C.2       8 UNK         0.5039 
     34 O          28.5058  -46.4272  -55.5988 O.2       8 UNK        -0.5547 
     35 CA         29.3455  -48.6867  -55.8156 C.3       7 UNK         0.0281 
     36 CB         28.3852  -49.8753  -56.0464 C.3       7 UNK        -0.1963 
     37 N          29.9981  -48.2577  -57.0590 N.am      7 UNK        -0.4444 
     38 C          29.4401  -47.9540  -58.2428 C.2       7 UNK         0.5104 
     39 O          28.2410  -48.0673  -58.4930 O.2       7 UNK        -0.5100 
     40 CA         30.3704  -47.4485  -59.3651 C.3       6 UNK         0.0396 
     41 CB         29.8339  -46.1532  -59.9925 C.3       6 UNK        -0.1801 
     42 N          31.7389  -47.2110  -58.9063 N.am      6 UNK        -0.4747 
     43 C          32.7279  -48.1119  -58.9295 C.2       6 UNK         0.5012 
     44 O          32.6079  -49.2409  -59.4096 O.2       6 UNK        -0.5003 
     45 CA         34.0737  -47.7147  -58.2768 C.3       5 UNK         0.0782 
     46 C46        34.1623  -46.2482  -57.7642 C.3       11 UNK        -0.0868 
     47 S47        34.1664  -45.0146  -59.1085 S.3       11 UNK        -0.2515 
     48 C48        33.8565  -43.4750  -58.1881 C.3       11 UNK         0.0199 
     49 N          34.4100  -48.6810  -57.2246 N.am      5 UNK        -0.4607 
     50 C          33.6853  -48.9151  -56.1218 C.2       4 UNK         0.5031 
     51 O          32.6688  -48.2849  -55.8204 O.2       4 UNK        -0.5119 
     52 CA         34.2021  -50.0227  -55.1933 C.3       4 UNK         0.0263 
     53 CB         35.2478  -49.4600  -54.2165 C.3       4 UNK        -0.1967 
     54 N          33.1011  -50.6300  -54.4405 N.am      4 UNK        -0.4237 
     55 C          32.2699  -51.5538  -54.9500 C.2       3 UNK         0.4908 
     56 O          32.3830  -51.9996  -56.0929 O.2       3 UNK        -0.5102 
     57 CA         31.1407  -52.1065  -54.0573 C.3       3 UNK         0.0241 
     58 CB         31.2154  -53.6417  -53.9670 C.3       3 UNK        -0.1971 
     59 N          31.1766  -51.5604  -52.7000 N.am      3 UNK        -0.4139 
     60 C          30.3087  -50.6714  -52.2046 C.2       2 UNK         0.5016 
     61 O          29.3332  -50.2381  -52.8192 O.2       2 UNK        -0.5319 
     62 CA         30.5874  -50.1215  -50.7947 C.3       2 UNK         0.0286 
     63 CB         31.6766  -50.8858  -50.0061 C.3       2 UNK        -0.1963 
     64 N          30.8995  -48.6902  -50.8652 N.am      2 UNK        -0.4790 
     65 C          31.8926  -48.1117  -51.5599 C.2       1 UNK         0.5024 
     66 O          32.7467  -48.7562  -52.1691 O.2       1 UNK        -0.4888 
     67 H67        29.0843  -45.7094  -48.2329 H         1 UNK         0.0892 
     68 H68        29.9197  -44.1635  -48.4043 H         1 UNK         0.0892 
     69 H69        28.8917  -44.7605  -49.7079 H         1 UNK         0.0892 
     70 H70        30.1075  -45.5421  -51.4143 H         1 UNK         0.3107 
     71 H71        32.8811  -46.2884  -51.1223 H         1 UNK         0.0773 
     72 H72        31.1353  -46.3804  -53.6349 H         1 UNK         0.0680 
     73 H73        32.8732  -46.4770  -53.5843 H         1 UNK         0.0680 
     74 H74        30.3599  -42.8022  -53.7636 H         1 UNK         0.0650 
     75 H75        29.9171  -44.4685  -54.0146 H         1 UNK         0.0650 
     76 H76        33.1257  -43.8914  -55.6166 H         1 UNK         0.1397 
     77 H77        31.5097  -42.9015  -59.4441 H         1 UNK         0.1363 
     78 H78        28.9252  -43.1598  -56.0249 H         1 UNK         0.1355 
     79 H79        28.9915  -43.1280  -59.7130 H         1 UNK         0.0707 
     80 H80        29.0633  -41.5315  -59.0170 H         1 UNK         0.0707 
     81 H81        26.9862  -44.8313  -59.3131 H         1 UNK         0.1034 
     82 H82        27.8141  -45.1101  -57.7991 H         1 UNK         0.1034 
     83 H83        24.8560  -44.4025  -58.0372 H         1 UNK         0.0482 
     84 H84        24.8503  -48.3427  -57.3123 H         1 UNK         0.3460 
     85 H85        25.2604  -47.1948  -56.0587 H         1 UNK         0.3460 
     86 H86        26.5319  -44.8813  -55.6860 H         1 UNK         0.2989 
     87 H87        24.8975  -43.3778  -53.6838 H         1 UNK         0.0559 
     88 H88        23.2306  -45.9196  -53.2935 H         1 UNK         0.0848 
     89 H89        22.6233  -44.2724  -53.3559 H         1 UNK         0.0848 
     90 H90        23.6405  -44.7738  -52.0177 H         1 UNK         0.0848 
     91 H91        26.6109  -44.5327  -52.9152 H         1 UNK         0.3144 
     92 H92        28.2156  -45.9992  -52.7871 H         1 UNK         0.0727 
     93 H93        26.7737  -48.4514  -51.6341 H         1 UNK         0.0790 
     94 H94        26.8494  -46.8731  -50.8624 H         1 UNK         0.0790 
     95 H95        28.3163  -47.8087  -51.0832 H         1 UNK         0.0790 
     96 H96        28.4921  -48.7289  -53.4390 H         1 UNK         0.3215 
     97 H97        30.1562  -49.0360  -55.1745 H         1 UNK         0.0863 
     98 H98        28.8629  -50.6659  -56.6249 H         1 UNK         0.0808 
     99 H99        27.4790  -49.5714  -56.5706 H         1 UNK         0.0808 
    100 H100       28.0651  -50.3164  -55.1029 H         1 UNK         0.0808 
    101 H101       30.9957  -48.1002  -56.9572 H         1 UNK         0.3118 
    102 H102       30.3755  -48.2141  -60.1435 H         1 UNK         0.0546 
    103 H103       29.7501  -45.3670  -59.2460 H         1 UNK         0.0828 
    104 H104       28.8436  -46.3038  -60.4239 H         1 UNK         0.0828 
    105 H105       30.4843  -45.7945  -60.7903 H         1 UNK         0.0828 
    106 H106       31.9272  -46.3036  -58.5003 H         1 UNK         0.3005 
    107 H107       34.8285  -47.8404  -59.0552 H         1 UNK         0.1257 
    108 H108       35.0893  -46.1133  -57.2047 H         1 UNK         0.0775 
    109 H109       33.3611  -46.0355  -57.0564 H         1 UNK         0.0775 
    110 H110       34.6146  -43.3613  -57.4115 H         1 UNK         0.0840 
    111 H111       33.9911  -42.6297  -58.8647 H         1 UNK         0.0840 
    112 H112       35.2197  -49.2576  -57.4054 H         1 UNK         0.2987 
    113 H113       34.6798  -50.7968  -55.7980 H         1 UNK         0.0785 
    114 H114       36.1354  -49.1195  -54.7510 H         1 UNK         0.0798 
    115 H115       35.5711  -50.2142  -53.4990 H         1 UNK         0.0798 
    116 H116       34.8637  -48.6063  -53.6576 H         1 UNK         0.0798 
    117 H117       32.8961  -50.2079  -53.5401 H         1 UNK         0.3079 
    118 H118       30.2000  -51.8445  -54.5455 H         1 UNK         0.0794 
    119 H119       32.1553  -53.9752  -53.5255 H         1 UNK         0.0786 
    120 H120       31.1376  -54.0992  -54.9543 H         1 UNK         0.0786 
    121 H121       30.4005  -54.0421  -53.3637 H         1 UNK         0.0786 
    122 H122       31.9595  -51.8353  -52.1236 H         1 UNK         0.3032 
    123 H123       29.6505  -50.2171  -50.2431 H         1 UNK         0.1094 
    124 H124       31.7698  -50.4894  -48.9949 H         1 UNK         0.0794 
    125 H125       31.4244  -51.9427  -49.9088 H         1 UNK         0.0794 
    126 H126       32.6604  -50.8182  -50.4714 H         1 UNK         0.0794 
    127 H127       30.2544  -48.0763  -50.3908 H         1 UNK         0.3016 
@<TRIPOS>BOND
     1    1    2 1    
     2    1   67 1    
     3    1   68 1    
     4    1   69 1    
     5    2    3 2    
     6    2    4 am   BACKBONE|DICT|INTERRES
     7    4    5 1    
     8    4   70 1    
     9    5    6 1    
    10    5   65 1    
    11    5   71 1    
    12    6    7 1    
    13    6   72 1    
    14    6   73 1    
    15    7    8 1    
    16    8    9 1    
    17    8   74 1    
    18    8   75 1    
    19    9   10 ar   
    20    9   14 ar   
    21   10   11 ar   
    22   10   76 1    
    23   11   12 ar   
    24   11   48 1    
    25   12   13 ar   
    26   12   77 1    
    27   13   14 ar   
    28   13   15 1    
    29   14   78 1    
    30   15   16 1    
    31   15   79 1    
    32   15   80 1    
    33   16   17 1    
    34   17   18 1    
    35   17   81 1    
    36   17   82 1    
    37   18   19 1    
    38   18   22 1    
    39   18   83 1    
    40   19   20 am   BACKBONE|DICT|INTERRES
    41   19   21 2    
    42   20   84 1    
    43   20   85 1    
    44   22   23 am   BACKBONE|DICT|INTERRES
    45   22   86 1    
    46   23   24 2    
    47   23   25 1    
    48   25   26 1    
    49   25   27 1    
    50   25   87 1    
    51   26   88 1    
    52   26   89 1    
    53   26   90 1    
    54   27   28 am   BACKBONE|DICT|INTERRES
    55   27   91 1    
    56   28   29 2    
    57   28   30 1    
    58   30   31 1    
    59   30   32 1    
    60   30   92 1    
    61   31   93 1    
    62   31   94 1    
    63   31   95 1    
    64   32   33 am   BACKBONE|DICT|INTERRES
    65   32   96 1    
    66   33   34 2    
    67   33   35 1    
    68   35   36 1    
    69   35   37 1    
    70   35   97 1    
    71   36   98 1    
    72   36   99 1    
    73   36  100 1    
    74   37   38 am   BACKBONE|DICT|INTERRES
    75   37  101 1    
    76   38   39 2    
    77   38   40 1    
    78   40   41 1    
    79   40   42 1    
    80   40  102 1    
    81   41  103 1    
    82   41  104 1    
    83   41  105 1    
    84   42   43 am   BACKBONE|DICT|INTERRES
    85   42  106 1    
    86   43   44 2    
    87   43   45 1    
    88   45   46 1    
    89   45   49 1    
    90   45  107 1    
    91   46   47 1    
    92   46  108 1    
    93   46  109 1    
    94   47   48 1    
    95   48  110 1    
    96   48  111 1    
    97   49   50 am   BACKBONE|DICT|INTERRES
    98   49  112 1    
    99   50   51 2    
   100   50   52 1    
   101   52   53 1    
   102   52   54 1    
   103   52  113 1    
   104   53  114 1    
   105   53  115 1    
   106   53  116 1    
   107   54   55 am   BACKBONE|DICT|INTERRES
   108   54  117 1    
   109   55   56 2    
   110   55   57 1    
   111   57   58 1    
   112   57   59 1    
   113   57  118 1    
   114   58  119 1    
   115   58  120 1    
   116   58  121 1    
   117   59   60 am   BACKBONE|DICT|INTERRES
   118   59  122 1    
   119   60   61 2    
   120   60   62 1    
   121   62   63 1    
   122   62   64 1    
   123   62  123 1    
   124   63  124 1    
   125   63  125 1    
   126   63  126 1    
   127   64   65 am   BACKBONE|DICT|INTERRES
   128   64  127 1    
   129   65   66 2    
@<TRIPOS>SUBSTRUCTURE
     1 UNK         1 GROUP             0       ****    0 ROOT    
