@<TRIPOS>MOLECULE
3R134
127   129    1
SMALL
USER_CHARGES


@<TRIPOS>ATOM
      1 CA         28.5632  -47.2990  -52.0721 C.3       0 UNK        -0.1968 
      2 C          29.9737  -46.7624  -52.2654 C.2       0 UNK         0.4852 
      3 O          30.6762  -47.2020  -53.1777 O.2       0 UNK        -0.5359 
      4 N          30.3838  -45.8171  -51.4095 N.am      1 UNK        -0.4300 
      5 CA         31.6775  -45.1310  -51.4277 C.3       1 UNK         0.0863 
      6 C6         31.8058  -44.1571  -52.6323 C.3       11 UNK        -0.0953 
      7 S7         33.1358  -42.9215  -52.4133 S.3       11 UNK        -0.2369 
      8 C8         32.8333  -41.7723  -53.8009 C.3       11 UNK         0.0226 
      9 C9         32.6909  -42.4559  -55.1586 C.ar      11 UNK        -0.0699 
     10 C10        33.4998  -43.5417  -55.5144 C.ar      11 UNK        -0.0804 
     11 C11        33.2948  -44.2134  -56.7207 C.ar      11 UNK        -0.0871 
     12 C12        32.3256  -43.7463  -57.6131 C.ar      11 UNK        -0.1008 
     13 C13        31.5181  -42.6583  -57.2779 C.ar      11 UNK        -0.0735 
     14 C14        31.7130  -42.0104  -56.0541 C.ar      11 UNK        -0.0945 
     15 C15        30.4182  -42.2114  -58.2306 C.3       11 UNK         0.0169 
     16 S16        28.9374  -43.2724  -58.1053 S.3       11 UNK        -0.2669 
     17 C17        28.2805  -42.8052  -56.4661 C.3       11 UNK        -0.0850 
     18 CA         28.2511  -44.0044  -55.4673 C.3       10 UNK         0.0855 
     19 C          28.0629  -43.5882  -53.9721 C.2       10 UNK         0.5543 
     20 N          28.5007  -42.4039  -53.5629 N.am      10 UNK        -0.7343 
     21 O          27.5645  -44.3555  -53.1517 O.2       10 UNK        -0.5027 
     22 N          27.3051  -45.0563  -55.8892 N.am      10 UNK        -0.4495 
     23 C          25.9673  -44.9338  -55.9159 C.2       10 UNK         0.4903 
     24 O          25.3656  -43.8939  -55.6436 O.2       10 UNK        -0.4860 
     25 CA         25.1406  -46.1672  -56.3110 C.3       9 UNK         0.0227 
     26 CB         24.7744  -46.1152  -57.8013 C.3       9 UNK        -0.1964 
     27 N          25.8353  -47.4207  -56.0127 N.am      9 UNK        -0.4231 
     28 C          25.7072  -48.1000  -54.8655 C.2       9 UNK         0.5014 
     29 O          24.9489  -47.7612  -53.9546 O.2       9 UNK        -0.5270 
     30 CA         26.5852  -49.3573  -54.6962 C.3       8 UNK         0.0284 
     31 CB         26.0703  -50.3055  -53.5924 C.3       8 UNK        -0.1977 
     32 N          26.8271  -50.0900  -55.9447 N.am      8 UNK        -0.4342 
     33 C          25.9239  -50.6603  -56.7546 C.2       8 UNK         0.5039 
     34 O          24.7102  -50.6792  -56.5407 O.2       8 UNK        -0.5547 
     35 CA         26.5034  -51.3035  -58.0297 C.3       7 UNK         0.0281 
     36 CB         25.4215  -51.8560  -58.9833 C.3       7 UNK        -0.1963 
     37 N          27.4205  -50.3925  -58.7299 N.am      7 UNK        -0.4444 
     38 C          27.1231  -49.2024  -59.2766 C.2       7 UNK         0.5104 
     39 O          25.9864  -48.7359  -59.3412 O.2       7 UNK        -0.5100 
     40 CA         28.3214  -48.3930  -59.8160 C.3       6 UNK         0.0396 
     41 CB         27.9682  -46.9377  -60.1913 C.3       6 UNK        -0.1801 
     42 N          29.4793  -48.4188  -58.9136 N.am      6 UNK        -0.4747 
     43 C          29.5088  -48.0237  -57.6310 C.2       6 UNK         0.5012 
     44 O          28.5433  -47.5520  -57.0225 O.2       6 UNK        -0.5003 
     45 CA         30.8599  -48.1809  -56.9101 C.3       5 UNK         0.0782 
     46 C46        31.5846  -46.8225  -56.8539 C.3       11 UNK        -0.0868 
     47 S47        33.2810  -46.9216  -56.1846 S.3       11 UNK        -0.2515 
     48 C48        34.0589  -45.4948  -57.0186 C.3       11 UNK         0.0199 
     49 N          30.7063  -48.7705  -55.5815 N.am      5 UNK        -0.4607 
     50 C          30.2075  -49.9833  -55.3212 C.2       4 UNK         0.5031 
     51 O          29.6768  -50.7056  -56.1691 O.2       4 UNK        -0.5119 
     52 CA         30.3530  -50.4622  -53.8642 C.3       4 UNK         0.0263 
     53 CB         29.9047  -51.9259  -53.6636 C.3       4 UNK        -0.1967 
     54 N          31.7160  -50.2512  -53.3491 N.am      4 UNK        -0.4237 
     55 C          32.8488  -50.7594  -53.8612 C.2       3 UNK         0.4908 
     56 O          32.8853  -51.5093  -54.8386 O.2       3 UNK        -0.5102 
     57 CA         34.1591  -50.3560  -53.1697 C.3       3 UNK         0.0241 
     58 CB         35.4110  -50.8340  -53.9411 C.3       3 UNK        -0.1971 
     59 N          34.2236  -48.9082  -52.9504 N.am      3 UNK        -0.4139 
     60 C          35.0274  -48.3300  -52.0484 C.2       2 UNK         0.5016 
     61 O          35.7157  -48.9568  -51.2410 O.2       2 UNK        -0.5319 
     62 CA         35.1081  -46.7962  -52.0565 C.3       2 UNK         0.0286 
     63 CB         36.0375  -46.3083  -53.1806 C.3       2 UNK        -0.1963 
     64 N          33.8182  -46.1167  -52.1716 N.am      2 UNK        -0.4790 
     65 C          32.8505  -46.1256  -51.2447 C.2       1 UNK         0.5024 
     66 O          32.8734  -46.8426  -50.2423 O.2       1 UNK        -0.4888 
     67 H67        27.9839  -47.1408  -52.9803 H         1 UNK         0.0892 
     68 H68        28.0442  -46.7907  -51.2597 H         1 UNK         0.0892 
     69 H69        28.5812  -48.3637  -51.8462 H         1 UNK         0.0892 
     70 H70        29.7617  -45.5311  -50.6667 H         1 UNK         0.3107 
     71 H71        31.6798  -44.5204  -50.5233 H         1 UNK         0.0773 
     72 H72        30.8758  -43.6008  -52.7466 H         1 UNK         0.0680 
     73 H73        31.9366  -44.7053  -53.5666 H         1 UNK         0.0680 
     74 H74        31.9353  -41.1972  -53.5698 H         1 UNK         0.0650 
     75 H75        33.6557  -41.0579  -53.8511 H         1 UNK         0.0650 
     76 H76        34.2517  -43.9040  -54.8278 H         1 UNK         0.1397 
     77 H77        32.1608  -44.2588  -58.5508 H         1 UNK         0.1363 
     78 H78        31.0902  -41.1674  -55.7896 H         1 UNK         0.1355 
     79 H79        30.1431  -41.1716  -58.0470 H         1 UNK         0.0707 
     80 H80        30.7900  -42.2490  -59.2557 H         1 UNK         0.0707 
     81 H81        27.2829  -42.3850  -56.5984 H         1 UNK         0.1034 
     82 H82        28.8837  -41.9839  -56.0857 H         1 UNK         0.1034 
     83 H83        29.2348  -44.4751  -55.4898 H         1 UNK         0.0482 
     84 H84        28.3821  -42.1569  -52.5932 H         1 UNK         0.3460 
     85 H85        28.9282  -41.7485  -54.1944 H         1 UNK         0.3460 
     86 H86        27.7210  -45.9445  -56.1482 H         1 UNK         0.2989 
     87 H87        24.2061  -46.1289  -55.7472 H         1 UNK         0.0559 
     88 H88        24.2036  -45.2147  -58.0316 H         1 UNK         0.0848 
     89 H89        24.1627  -46.9704  -58.0894 H         1 UNK         0.0848 
     90 H90        25.6590  -46.1089  -58.4353 H         1 UNK         0.0848 
     91 H91        26.5353  -47.7299  -56.6791 H         1 UNK         0.3144 
     92 H92        27.5607  -48.9895  -54.3813 H         1 UNK         0.0727 
     93 H93        25.0629  -50.6632  -53.8079 H         1 UNK         0.0790 
     94 H94        26.0360  -49.8004  -52.6263 H         1 UNK         0.0790 
     95 H95        26.7157  -51.1751  -53.4773 H         1 UNK         0.0790 
     96 H96        27.8031  -50.1643  -56.2205 H         1 UNK         0.3215 
     97 H97        27.1061  -52.1498  -57.6953 H         1 UNK         0.0863 
     98 H98        25.8667  -52.3156  -59.8655 H         1 UNK         0.0808 
     99 H99        24.7364  -51.0772  -59.3193 H         1 UNK         0.0808 
    100 H100       24.8216  -52.6201  -58.4875 H         1 UNK         0.0808 
    101 H101       28.3957  -50.6597  -58.7091 H         1 UNK         0.3118 
    102 H102       28.6295  -48.8983  -60.7325 H         1 UNK         0.0546 
    103 H103       27.7354  -46.3350  -59.3144 H         1 UNK         0.0828 
    104 H104       27.1073  -46.8957  -60.8596 H         1 UNK         0.0828 
    105 H105       28.7978  -46.4545  -60.7069 H         1 UNK         0.0828 
    106 H106       30.3268  -48.7939  -59.3182 H         1 UNK         0.3005 
    107 H107       31.4777  -48.8736  -57.4858 H         1 UNK         0.1257 
    108 H108       31.6420  -46.4089  -57.8615 H         1 UNK         0.0775 
    109 H109       31.0189  -46.1064  -56.2536 H         1 UNK         0.0775 
    110 H110       35.0925  -45.4012  -56.6822 H         1 UNK         0.0840 
    111 H111       34.1007  -45.6782  -58.0934 H         1 UNK         0.0840 
    112 H112       31.0056  -48.1944  -54.7991 H         1 UNK         0.2987 
    113 H113       29.6916  -49.8353  -53.2686 H         1 UNK         0.0785 
    114 H114       29.9688  -52.2201  -52.6162 H         1 UNK         0.0798 
    115 H115       30.5111  -52.6208  -54.2453 H         1 UNK         0.0798 
    116 H116       28.8701  -52.0658  -53.9771 H         1 UNK         0.0798 
    117 H117       31.7930  -49.6141  -52.5675 H         1 UNK         0.3079 
    118 H118       34.1488  -50.8556  -52.1985 H         1 UNK         0.0794 
    119 H119       35.3887  -51.9130  -54.0996 H         1 UNK         0.0786 
    120 H120       36.3293  -50.6143  -53.3969 H         1 UNK         0.0786 
    121 H121       35.4812  -50.3590  -54.9205 H         1 UNK         0.0786 
    122 H122       33.6793  -48.3234  -53.5716 H         1 UNK         0.3032 
    123 H123       35.5492  -46.4953  -51.1034 H         1 UNK         0.1094 
    124 H124       35.6386  -46.5427  -54.1680 H         1 UNK         0.0794 
    125 H125       36.1922  -45.2303  -53.1282 H         1 UNK         0.0794 
    126 H126       37.0192  -46.7784  -53.1067 H         1 UNK         0.0794 
    127 H127       33.7033  -45.4914  -52.9561 H         1 UNK         0.3016 
@<TRIPOS>BOND
     1    1    2 1    
     2    1   67 1    
     3    1   68 1    
     4    1   69 1    
     5    2    3 2    
     6    2    4 am   BACKBONE|DICT|INTERRES
     7    4    5 1    
     8    4   70 1    
     9    5    6 1    
    10    5   65 1    
    11    5   71 1    
    12    6    7 1    
    13    6   72 1    
    14    6   73 1    
    15    7    8 1    
    16    8    9 1    
    17    8   74 1    
    18    8   75 1    
    19    9   10 ar   
    20    9   14 ar   
    21   10   11 ar   
    22   10   76 1    
    23   11   12 ar   
    24   11   48 1    
    25   12   13 ar   
    26   12   77 1    
    27   13   14 ar   
    28   13   15 1    
    29   14   78 1    
    30   15   16 1    
    31   15   79 1    
    32   15   80 1    
    33   16   17 1    
    34   17   18 1    
    35   17   81 1    
    36   17   82 1    
    37   18   19 1    
    38   18   22 1    
    39   18   83 1    
    40   19   20 am   BACKBONE|DICT|INTERRES
    41   19   21 2    
    42   20   84 1    
    43   20   85 1    
    44   22   23 am   BACKBONE|DICT|INTERRES
    45   22   86 1    
    46   23   24 2    
    47   23   25 1    
    48   25   26 1    
    49   25   27 1    
    50   25   87 1    
    51   26   88 1    
    52   26   89 1    
    53   26   90 1    
    54   27   28 am   BACKBONE|DICT|INTERRES
    55   27   91 1    
    56   28   29 2    
    57   28   30 1    
    58   30   31 1    
    59   30   32 1    
    60   30   92 1    
    61   31   93 1    
    62   31   94 1    
    63   31   95 1    
    64   32   33 am   BACKBONE|DICT|INTERRES
    65   32   96 1    
    66   33   34 2    
    67   33   35 1    
    68   35   36 1    
    69   35   37 1    
    70   35   97 1    
    71   36   98 1    
    72   36   99 1    
    73   36  100 1    
    74   37   38 am   BACKBONE|DICT|INTERRES
    75   37  101 1    
    76   38   39 2    
    77   38   40 1    
    78   40   41 1    
    79   40   42 1    
    80   40  102 1    
    81   41  103 1    
    82   41  104 1    
    83   41  105 1    
    84   42   43 am   BACKBONE|DICT|INTERRES
    85   42  106 1    
    86   43   44 2    
    87   43   45 1    
    88   45   46 1    
    89   45   49 1    
    90   45  107 1    
    91   46   47 1    
    92   46  108 1    
    93   46  109 1    
    94   47   48 1    
    95   48  110 1    
    96   48  111 1    
    97   49   50 am   BACKBONE|DICT|INTERRES
    98   49  112 1    
    99   50   51 2    
   100   50   52 1    
   101   52   53 1    
   102   52   54 1    
   103   52  113 1    
   104   53  114 1    
   105   53  115 1    
   106   53  116 1    
   107   54   55 am   BACKBONE|DICT|INTERRES
   108   54  117 1    
   109   55   56 2    
   110   55   57 1    
   111   57   58 1    
   112   57   59 1    
   113   57  118 1    
   114   58  119 1    
   115   58  120 1    
   116   58  121 1    
   117   59   60 am   BACKBONE|DICT|INTERRES
   118   59  122 1    
   119   60   61 2    
   120   60   62 1    
   121   62   63 1    
   122   62   64 1    
   123   62  123 1    
   124   63  124 1    
   125   63  125 1    
   126   63  126 1    
   127   64   65 am   BACKBONE|DICT|INTERRES
   128   64  127 1    
   129   65   66 2    
@<TRIPOS>SUBSTRUCTURE
     1 UNK         1 GROUP             0       ****    0 ROOT    
