@<TRIPOS>MOLECULE
3R134
127   129    1
SMALL
USER_CHARGES


@<TRIPOS>ATOM
      1 CA         37.9988  -45.5378  -53.5400 C.3       0 UNK        -0.1968 
      2 C          36.4859  -45.6875  -53.5931 C.2       0 UNK         0.4852 
      3 O          35.9802  -46.5226  -54.3438 O.2       0 UNK        -0.5359 
      4 N          35.7600  -44.8990  -52.7894 N.am      1 UNK        -0.4300 
      5 CA         34.2917  -44.8415  -52.7077 C.3       1 UNK         0.0863 
      6 C6         33.8142  -43.4742  -52.1443 C.3       11 UNK        -0.0953 
      7 S7         34.5049  -42.0563  -53.0697 S.3       11 UNK        -0.2369 
      8 C8         33.0144  -41.1795  -53.6490 C.3       11 UNK         0.0226 
      9 C9         32.1160  -42.0088  -54.5616 C.ar      11 UNK        -0.0699 
     10 C10        32.6495  -42.7961  -55.5897 C.ar      11 UNK        -0.0804 
     11 C11        31.8107  -43.5609  -56.4057 C.ar      11 UNK        -0.0871 
     12 C12        30.4280  -43.5057  -56.2145 C.ar      11 UNK        -0.1008 
     13 C13        29.8809  -42.7041  -55.2109 C.ar      11 UNK        -0.0735 
     14 C14        30.7293  -41.9643  -54.3832 C.ar      11 UNK        -0.0945 
     15 C15        28.3739  -42.6326  -55.0318 C.3       11 UNK         0.0169 
     16 S16        27.7628  -44.0138  -54.0205 S.3       11 UNK        -0.2669 
     17 C17        25.9603  -43.7418  -54.1311 C.3       11 UNK        -0.0850 
     18 CA         25.2194  -44.8055  -54.9863 C.3       10 UNK         0.0855 
     19 C          23.6963  -44.4956  -54.9977 C.2       10 UNK         0.5543 
     20 N          22.9212  -45.1500  -54.1440 N.am      10 UNK        -0.7343 
     21 O          23.2270  -43.6301  -55.7344 O.2       10 UNK        -0.5027 
     22 N          25.8106  -44.9229  -56.3296 N.am      10 UNK        -0.4495 
     23 C          25.3870  -45.7114  -57.3269 C.2       10 UNK         0.4903 
     24 O          24.4133  -46.4615  -57.2565 O.2       10 UNK        -0.4860 
     25 CA         26.1829  -45.6660  -58.6385 C.3       9 UNK         0.0227 
     26 CB         27.1149  -44.4455  -58.7816 C.3       9 UNK        -0.1964 
     27 N          26.9712  -46.8906  -58.7368 N.am      9 UNK        -0.4231 
     28 C          26.9830  -47.7220  -59.7848 C.2       9 UNK         0.5014 
     29 O          26.3466  -47.5347  -60.8234 O.2       9 UNK        -0.5270 
     30 CA         27.8625  -48.9782  -59.6638 C.3       8 UNK         0.0284 
     31 CB         29.3243  -48.6450  -60.0044 C.3       8 UNK        -0.1977 
     32 N          27.7940  -49.6134  -58.3444 N.am      8 UNK        -0.4342 
     33 C          26.7086  -50.2270  -57.8493 C.2       8 UNK         0.5039 
     34 O          25.6475  -50.3450  -58.4636 O.2       8 UNK        -0.5547 
     35 CA         26.8240  -50.8213  -56.4354 C.3       7 UNK         0.0281 
     36 CB         27.5200  -52.1915  -56.4742 C.3       7 UNK        -0.1963 
     37 N          27.5324  -49.9316  -55.5149 N.am      7 UNK        -0.4444 
     38 C          27.0199  -48.8017  -55.0092 C.2       7 UNK         0.5104 
     39 O          25.8541  -48.4485  -55.1749 O.2       7 UNK        -0.5100 
     40 CA         27.9640  -47.9031  -54.1900 C.3       6 UNK         0.0396 
     41 CB         27.9184  -48.2728  -52.7006 C.3       6 UNK        -0.1801 
     42 N          29.3501  -47.9253  -54.6649 N.am      6 UNK        -0.4747 
     43 C          29.7470  -47.4828  -55.8675 C.2       6 UNK         0.5012 
     44 O          28.9903  -46.9773  -56.6978 O.2       6 UNK        -0.5003 
     45 CA         31.2320  -47.6933  -56.2219 C.3       5 UNK         0.0782 
     46 C46        32.1287  -46.5961  -55.5884 C.3       11 UNK        -0.0868 
     47 S47        33.3163  -45.8811  -56.7727 S.3       11 UNK        -0.2515 
     48 C48        32.3903  -44.4753  -57.4760 C.3       11 UNK         0.0199 
     49 N          31.6716  -49.0373  -55.8373 N.am      5 UNK        -0.4607 
     50 C          31.2464  -50.1761  -56.3982 C.2       4 UNK         0.5031 
     51 O          30.4699  -50.2189  -57.3509 O.2       4 UNK        -0.5119 
     52 CA         31.7308  -51.4866  -55.7530 C.3       4 UNK         0.0263 
     53 CB         33.1201  -51.8703  -56.2860 C.3       4 UNK        -0.1967 
     54 N          31.7669  -51.4152  -54.2886 N.am      4 UNK        -0.4237 
     55 C          30.6808  -51.2758  -53.5136 C.2       3 UNK         0.4908 
     56 O          29.5319  -51.2712  -53.9506 O.2       3 UNK        -0.5102 
     57 CA         30.9059  -51.0603  -52.0055 C.3       3 UNK         0.0241 
     58 CB         30.9117  -52.4082  -51.2673 C.3       3 UNK        -0.1971 
     59 N          32.1272  -50.3161  -51.6762 N.am      3 UNK        -0.4139 
     60 C          32.4340  -49.0881  -52.1198 C.2       2 UNK         0.5016 
     61 O          31.7024  -48.4362  -52.8692 O.2       2 UNK        -0.5319 
     62 CA         33.8035  -48.5359  -51.6815 C.3       2 UNK         0.0286 
     63 CB         34.9418  -49.5180  -52.0215 C.3       2 UNK        -0.1963 
     64 N          34.1212  -47.2560  -52.3144 N.am      2 UNK        -0.4790 
     65 C          33.7255  -46.0439  -51.9096 C.2       1 UNK         0.5024 
     66 O          33.0002  -45.8605  -50.9300 O.2       1 UNK        -0.4888 
     67 H67        38.3083  -44.7640  -52.8377 H         1 UNK         0.0892 
     68 H68        38.4579  -46.4776  -53.2344 H         1 UNK         0.0892 
     69 H69        38.3832  -45.2746  -54.5251 H         1 UNK         0.0892 
     70 H70        36.2400  -44.2477  -52.1850 H         1 UNK         0.3107 
     71 H71        33.8957  -44.9295  -53.7217 H         1 UNK         0.0773 
     72 H72        34.1106  -43.3643  -51.0995 H         1 UNK         0.0680 
     73 H73        32.7241  -43.4192  -52.1584 H         1 UNK         0.0680 
     74 H74        33.3258  -40.2851  -54.1898 H         1 UNK         0.0650 
     75 H75        32.4614  -40.8341  -52.7740 H         1 UNK         0.0650 
     76 H76        33.7198  -42.8379  -55.7389 H         1 UNK         0.1397 
     77 H77        29.7770  -44.1026  -56.8361 H         1 UNK         0.1363 
     78 H78        30.3061  -41.3495  -53.6004 H         1 UNK         0.1355 
     79 H79        28.0929  -41.6890  -54.5610 H         1 UNK         0.0707 
     80 H80        27.8881  -42.6460  -56.0083 H         1 UNK         0.0707 
     81 H81        25.5688  -43.7462  -53.1118 H         1 UNK         0.1034 
     82 H82        25.7654  -42.7386  -54.5159 H         1 UNK         0.1034 
     83 H83        25.3603  -45.7765  -54.5086 H         1 UNK         0.0482 
     84 H84        21.9336  -44.9485  -54.1244 H         1 UNK         0.3460 
     85 H85        23.2997  -45.8581  -53.5343 H         1 UNK         0.3460 
     86 H86        26.6317  -44.3608  -56.4865 H         1 UNK         0.2989 
     87 H87        25.4448  -45.6193  -59.4418 H         1 UNK         0.0559 
     88 H88        26.5689  -43.5100  -58.6519 H         1 UNK         0.0848 
     89 H89        27.5643  -44.4166  -59.7744 H         1 UNK         0.0848 
     90 H90        27.9283  -44.4675  -58.0583 H         1 UNK         0.0848 
     91 H91        27.5514  -47.1121  -57.9296 H         1 UNK         0.3144 
     92 H92        27.5034  -49.7029  -60.3976 H         1 UNK         0.0727 
     93 H93        29.9438  -49.5420  -60.0136 H         1 UNK         0.0790 
     94 H94        29.7568  -47.9464  -59.2877 H         1 UNK         0.0790 
     95 H95        29.4011  -48.1888  -60.9923 H         1 UNK         0.0790 
     96 H96        28.6556  -49.6362  -57.8055 H         1 UNK         0.3215 
     97 H97        25.8113  -50.9694  -56.0536 H         1 UNK         0.0863 
     98 H98        27.5462  -52.6500  -55.4854 H         1 UNK         0.0808 
     99 H99        28.5463  -52.1161  -56.8339 H         1 UNK         0.0808 
    100 H100       26.9915  -52.8784  -57.1366 H         1 UNK         0.0808 
    101 H101       28.4627  -50.2142  -55.2214 H         1 UNK         0.3118 
    102 H102       27.6033  -46.8797  -54.2936 H         1 UNK         0.0546 
    103 H103       28.2132  -49.3082  -52.5339 H         1 UNK         0.0828 
    104 H104       26.9091  -48.1556  -52.3042 H         1 UNK         0.0828 
    105 H105       28.5758  -47.6337  -52.1108 H         1 UNK         0.0828 
    106 H106       30.0562  -48.2868  -54.0295 H         1 UNK         0.3005 
    107 H107       31.2949  -47.6279  -57.3104 H         1 UNK         0.1257 
    108 H108       32.7211  -47.0074  -54.7721 H         1 UNK         0.0775 
    109 H109       31.5510  -45.8011  -55.1164 H         1 UNK         0.0775 
    110 H110       33.0556  -43.8994  -58.1206 H         1 UNK         0.0840 
    111 H111       31.6012  -44.8639  -58.1220 H         1 UNK         0.0840 
    112 H112       32.2435  -49.0908  -55.0066 H         1 UNK         0.2987 
    113 H113       31.0274  -52.2733  -56.0345 H         1 UNK         0.0785 
    114 H114       33.1115  -51.9461  -57.3743 H         1 UNK         0.0798 
    115 H115       33.4403  -52.8378  -55.8986 H         1 UNK         0.0798 
    116 H116       33.8771  -51.1325  -56.0170 H         1 UNK         0.0798 
    117 H117       32.6748  -51.4258  -53.8482 H         1 UNK         0.3079 
    118 H118       30.0643  -50.4744  -51.6325 H         1 UNK         0.0794 
    119 H119       30.9608  -52.2700  -50.1870 H         1 UNK         0.0786 
    120 H120       31.7562  -53.0305  -51.5663 H         1 UNK         0.0786 
    121 H121       30.0012  -52.9717  -51.4776 H         1 UNK         0.0786 
    122 H122       32.7797  -50.7815  -51.0618 H         1 UNK         0.3032 
    123 H123       33.7705  -48.3937  -50.5989 H         1 UNK         0.1094 
    124 H124       34.9737  -49.7451  -53.0881 H         1 UNK         0.0794 
    125 H125       35.9124  -49.1060  -51.7434 H         1 UNK         0.0794 
    126 H126       34.8392  -50.4623  -51.4860 H         1 UNK         0.0794 
    127 H127       34.7210  -47.2855  -53.1355 H         1 UNK         0.3016 
@<TRIPOS>BOND
     1    1    2 1    
     2    1   67 1    
     3    1   68 1    
     4    1   69 1    
     5    2    3 2    
     6    2    4 am   BACKBONE|DICT|INTERRES
     7    4    5 1    
     8    4   70 1    
     9    5    6 1    
    10    5   65 1    
    11    5   71 1    
    12    6    7 1    
    13    6   72 1    
    14    6   73 1    
    15    7    8 1    
    16    8    9 1    
    17    8   74 1    
    18    8   75 1    
    19    9   10 ar   
    20    9   14 ar   
    21   10   11 ar   
    22   10   76 1    
    23   11   12 ar   
    24   11   48 1    
    25   12   13 ar   
    26   12   77 1    
    27   13   14 ar   
    28   13   15 1    
    29   14   78 1    
    30   15   16 1    
    31   15   79 1    
    32   15   80 1    
    33   16   17 1    
    34   17   18 1    
    35   17   81 1    
    36   17   82 1    
    37   18   19 1    
    38   18   22 1    
    39   18   83 1    
    40   19   20 am   BACKBONE|DICT|INTERRES
    41   19   21 2    
    42   20   84 1    
    43   20   85 1    
    44   22   23 am   BACKBONE|DICT|INTERRES
    45   22   86 1    
    46   23   24 2    
    47   23   25 1    
    48   25   26 1    
    49   25   27 1    
    50   25   87 1    
    51   26   88 1    
    52   26   89 1    
    53   26   90 1    
    54   27   28 am   BACKBONE|DICT|INTERRES
    55   27   91 1    
    56   28   29 2    
    57   28   30 1    
    58   30   31 1    
    59   30   32 1    
    60   30   92 1    
    61   31   93 1    
    62   31   94 1    
    63   31   95 1    
    64   32   33 am   BACKBONE|DICT|INTERRES
    65   32   96 1    
    66   33   34 2    
    67   33   35 1    
    68   35   36 1    
    69   35   37 1    
    70   35   97 1    
    71   36   98 1    
    72   36   99 1    
    73   36  100 1    
    74   37   38 am   BACKBONE|DICT|INTERRES
    75   37  101 1    
    76   38   39 2    
    77   38   40 1    
    78   40   41 1    
    79   40   42 1    
    80   40  102 1    
    81   41  103 1    
    82   41  104 1    
    83   41  105 1    
    84   42   43 am   BACKBONE|DICT|INTERRES
    85   42  106 1    
    86   43   44 2    
    87   43   45 1    
    88   45   46 1    
    89   45   49 1    
    90   45  107 1    
    91   46   47 1    
    92   46  108 1    
    93   46  109 1    
    94   47   48 1    
    95   48  110 1    
    96   48  111 1    
    97   49   50 am   BACKBONE|DICT|INTERRES
    98   49  112 1    
    99   50   51 2    
   100   50   52 1    
   101   52   53 1    
   102   52   54 1    
   103   52  113 1    
   104   53  114 1    
   105   53  115 1    
   106   53  116 1    
   107   54   55 am   BACKBONE|DICT|INTERRES
   108   54  117 1    
   109   55   56 2    
   110   55   57 1    
   111   57   58 1    
   112   57   59 1    
   113   57  118 1    
   114   58  119 1    
   115   58  120 1    
   116   58  121 1    
   117   59   60 am   BACKBONE|DICT|INTERRES
   118   59  122 1    
   119   60   61 2    
   120   60   62 1    
   121   62   63 1    
   122   62   64 1    
   123   62  123 1    
   124   63  124 1    
   125   63  125 1    
   126   63  126 1    
   127   64   65 am   BACKBONE|DICT|INTERRES
   128   64  127 1    
   129   65   66 2    
@<TRIPOS>SUBSTRUCTURE
     1 UNK         1 GROUP             0       ****    0 ROOT    
