@<TRIPOS>MOLECULE
3R134
127   129    1
SMALL
USER_CHARGES


@<TRIPOS>ATOM
      1 CA         33.8192  -43.3236  -53.0047 C.3       0 UNK        -0.1968 
      2 C          34.8062  -44.4265  -53.3560 C.2       0 UNK         0.4852 
      3 O          35.9185  -44.4482  -52.8259 O.2       0 UNK        -0.5359 
      4 N          34.4064  -45.3434  -54.2460 N.am      1 UNK        -0.4300 
      5 CA         35.1997  -46.4636  -54.7672 C.3       1 UNK         0.0863 
      6 C6         34.6297  -47.0235  -56.1036 C.3       11 UNK        -0.0953 
      7 S7         34.1845  -45.7483  -57.3334 S.3       11 UNK        -0.2369 
      8 C8         32.3832  -45.9960  -57.4854 C.3       11 UNK         0.0226 
      9 C9         31.6054  -45.3137  -56.3668 C.ar      11 UNK        -0.0699 
     10 C10        31.4846  -45.9169  -55.1125 C.ar      11 UNK        -0.0804 
     11 C11        30.7714  -45.2945  -54.0826 C.ar      11 UNK        -0.0871 
     12 C12        30.1445  -44.0691  -54.3271 C.ar      11 UNK        -0.1008 
     13 C13        30.2246  -43.4738  -55.5891 C.ar      11 UNK        -0.0735 
     14 C14        30.9753  -44.0879  -56.5960 C.ar      11 UNK        -0.0945 
     15 C15        29.4918  -42.1742  -55.8786 C.3       11 UNK         0.0169 
     16 S16        27.9030  -42.4878  -56.7113 S.3       11 UNK        -0.2669 
     17 C17        26.8200  -42.8883  -55.2940 C.3       11 UNK        -0.0850 
     18 CA         25.3744  -43.2894  -55.6953 C.3       10 UNK         0.0855 
     19 C          24.6074  -42.1268  -56.3957 C.2       10 UNK         0.5543 
     20 N          24.2240  -42.2513  -57.6611 N.am      10 UNK        -0.7343 
     21 O          24.3476  -41.1006  -55.7719 O.2       10 UNK        -0.5027 
     22 N          25.3483  -44.5827  -56.3980 N.am      10 UNK        -0.4495 
     23 C          24.2587  -45.3454  -56.5703 C.2       10 UNK         0.4903 
     24 O          23.1490  -45.0495  -56.1252 O.2       10 UNK        -0.4860 
     25 CA         24.4242  -46.6802  -57.3262 C.3       9 UNK         0.0227 
     26 CB         23.2868  -46.9291  -58.3393 C.3       9 UNK        -0.1964 
     27 N          25.7470  -46.8710  -57.9347 N.am      9 UNK        -0.4231 
     28 C          26.2815  -46.2333  -58.9863 C.2       9 UNK         0.5014 
     29 O          25.6855  -45.3810  -59.6454 O.2       9 UNK        -0.5270 
     30 CA         27.7376  -46.5668  -59.3510 C.3       8 UNK         0.0284 
     31 CB         28.6799  -45.5043  -58.7651 C.3       8 UNK        -0.1977 
     32 N          28.1709  -47.8880  -58.8783 N.am      8 UNK        -0.4342 
     33 C          28.6267  -48.8710  -59.6689 C.2       8 UNK         0.5039 
     34 O          28.6754  -48.7939  -60.8975 O.2       8 UNK        -0.5547 
     35 CA         29.1448  -50.1562  -58.9919 C.3       7 UNK         0.0281 
     36 CB         30.6767  -50.1078  -58.8659 C.3       7 UNK        -0.1963 
     37 N          28.5697  -50.4021  -57.6687 N.am      7 UNK        -0.4444 
     38 C          27.2995  -50.7708  -57.4440 C.2       7 UNK         0.5104 
     39 O          26.4949  -51.0252  -58.3402 O.2       7 UNK        -0.5100 
     40 CA         26.8309  -50.8394  -55.9746 C.3       6 UNK         0.0396 
     41 CB         26.8151  -52.2966  -55.4870 C.3       6 UNK        -0.1801 
     42 N          27.6253  -50.0302  -55.0412 N.am      6 UNK        -0.4747 
     43 C          27.8345  -48.7092  -55.1425 C.2       6 UNK         0.5012 
     44 O          27.3478  -48.0167  -56.0354 O.2       6 UNK        -0.5003 
     45 CA         28.8075  -48.0508  -54.1499 C.3       5 UNK         0.0782 
     46 C46        28.0456  -47.1938  -53.1114 C.3       11 UNK        -0.0868 
     47 S47        29.0237  -46.0978  -52.0134 S.3       11 UNK        -0.2515 
     48 C48        30.7089  -45.9479  -52.7071 C.3       11 UNK         0.0199 
     49 N          29.7478  -48.9972  -53.5361 N.am      5 UNK        -0.4607 
     50 C          30.7113  -49.6511  -54.1992 C.2       4 UNK         0.5031 
     51 O          30.8539  -49.5787  -55.4211 O.2       4 UNK        -0.5119 
     52 CA         31.6774  -50.4967  -53.3483 C.3       4 UNK         0.0263 
     53 CB         32.7088  -51.2532  -54.2056 C.3       4 UNK        -0.1967 
     54 N          32.3774  -49.6627  -52.3637 N.am      4 UNK        -0.4237 
     55 C          31.8693  -49.3030  -51.1737 C.2       3 UNK         0.4908 
     56 O          30.7554  -49.6682  -50.7937 O.2       3 UNK        -0.5102 
     57 CA         32.6675  -48.3280  -50.2809 C.3       3 UNK         0.0241 
     58 CB         32.6890  -48.7806  -48.8051 C.3       3 UNK        -0.1971 
     59 N          34.0163  -47.9993  -50.7619 N.am      3 UNK        -0.4139 
     60 C          35.0884  -48.8027  -50.8345 C.2       2 UNK         0.5016 
     61 O          35.0977  -49.9774  -50.4632 O.2       2 UNK        -0.5319 
     62 CA         36.3504  -48.1793  -51.4714 C.3       2 UNK         0.0286 
     63 CB         37.3872  -49.2419  -51.8944 C.3       2 UNK        -0.1963 
     64 N          36.0540  -47.2822  -52.6018 N.am      2 UNK        -0.4790 
     65 C          35.3610  -47.5821  -53.7104 C.2       1 UNK         0.5024 
     66 O          34.8206  -48.6747  -53.8848 O.2       1 UNK        -0.4888 
     67 H67        33.4234  -43.4775  -52.0013 H         1 UNK         0.0892 
     68 H68        34.3149  -42.3536  -53.0311 H         1 UNK         0.0892 
     69 H69        32.9827  -43.2898  -53.7025 H         1 UNK         0.0892 
     70 H70        33.4901  -45.2464  -54.6623 H         1 UNK         0.3107 
     71 H71        36.2010  -46.0830  -54.9800 H         1 UNK         0.0773 
     72 H72        35.3712  -47.6767  -56.5670 H         1 UNK         0.0680 
     73 H73        33.7608  -47.6597  -55.9333 H         1 UNK         0.0680 
     74 H74        32.1484  -47.0612  -57.5121 H         1 UNK         0.0650 
     75 H75        32.0696  -45.5988  -58.4516 H         1 UNK         0.0650 
     76 H76        31.9443  -46.8789  -54.9356 H         1 UNK         0.1397 
     77 H77        29.5816  -43.5876  -53.5391 H         1 UNK         0.1363 
     78 H78        31.0425  -43.6222  -57.5698 H         1 UNK         0.1355 
     79 H79        30.1079  -41.5449  -56.5226 H         1 UNK         0.0707 
     80 H80        29.3283  -41.6048  -54.9624 H         1 UNK         0.0707 
     81 H81        27.2759  -43.6968  -54.7205 H         1 UNK         0.1034 
     82 H82        26.7958  -42.0280  -54.6223 H         1 UNK         0.1034 
     83 H83        24.8370  -43.4525  -54.7589 H         1 UNK         0.0482 
     84 H84        24.4474  -43.0881  -58.1773 H         1 UNK         0.3460 
     85 H85        23.7248  -41.4977  -58.1060 H         1 UNK         0.3460 
     86 H86        26.2192  -44.8795  -56.8109 H         1 UNK         0.2989 
     87 H87        24.3499  -47.4563  -56.5631 H         1 UNK         0.0559 
     88 H88        22.3184  -46.9629  -57.8386 H         1 UNK         0.0848 
     89 H89        23.2308  -46.1425  -59.0920 H         1 UNK         0.0848 
     90 H90        23.4155  -47.8806  -58.8552 H         1 UNK         0.0848 
     91 H91        26.3584  -47.4740  -57.3874 H         1 UNK         0.3144 
     92 H92        27.8040  -46.5106  -60.4394 H         1 UNK         0.0727 
     93 H93        29.7055  -45.6650  -59.0952 H         1 UNK         0.0790 
     94 H94        28.6719  -45.5150  -57.6742 H         1 UNK         0.0790 
     95 H95        28.3924  -44.5018  -59.0853 H         1 UNK         0.0790 
     96 H96        28.1407  -48.0479  -57.8775 H         1 UNK         0.3215 
     97 H97        28.8807  -50.9961  -59.6385 H         1 UNK         0.0863 
     98 H98        31.1452  -49.9623  -59.8403 H         1 UNK         0.0808 
     99 H99        31.0028  -49.2901  -58.2217 H         1 UNK         0.0808 
    100 H100       31.0716  -51.0360  -58.4524 H         1 UNK         0.0808 
    101 H101       29.1705  -50.2234  -56.8727 H         1 UNK         0.3118 
    102 H102       25.8083  -50.4576  -55.9458 H         1 UNK         0.0546 
    103 H103       26.2077  -52.9217  -56.1433 H         1 UNK         0.0828 
    104 H104       26.3915  -52.3772  -54.4858 H         1 UNK         0.0828 
    105 H105       27.8175  -52.7260  -55.4652 H         1 UNK         0.0828 
    106 H106       28.0776  -50.5225  -54.2842 H         1 UNK         0.3005 
    107 H107       29.3810  -47.3815  -54.7838 H         1 UNK         0.1257 
    108 H108       27.4407  -47.8398  -52.4723 H         1 UNK         0.0775 
    109 H109       27.3345  -46.5414  -53.6234 H         1 UNK         0.0775 
    110 H110       31.2987  -45.3388  -52.0209 H         1 UNK         0.0840 
    111 H111       31.1896  -46.9235  -52.7169 H         1 UNK         0.0840 
    112 H112       29.7028  -49.1031  -52.5282 H         1 UNK         0.2987 
    113 H113       31.0794  -51.2452  -52.8240 H         1 UNK         0.0785 
    114 H114       32.2139  -51.9511  -54.8821 H         1 UNK         0.0798 
    115 H115       33.3941  -51.8316  -53.5858 H         1 UNK         0.0798 
    116 H116       33.3027  -50.5763  -54.8203 H         1 UNK         0.0798 
    117 H117       33.2869  -49.3116  -52.6457 H         1 UNK         0.3079 
    118 H118       32.1129  -47.3893  -50.3145 H         1 UNK         0.0794 
    119 H119       31.6774  -48.8552  -48.4039 H         1 UNK         0.0786 
    120 H120       33.2309  -48.0715  -48.1794 H         1 UNK         0.0786 
    121 H121       33.1543  -49.7593  -48.6853 H         1 UNK         0.0786 
    122 H122       34.1343  -47.0577  -51.1090 H         1 UNK         0.3032 
    123 H123       36.8061  -47.5632  -50.6942 H         1 UNK         0.1094 
    124 H124       38.2796  -48.7798  -52.3164 H         1 UNK         0.0794 
    125 H125       37.7078  -49.8397  -51.0402 H         1 UNK         0.0794 
    126 H126       36.9813  -49.9288  -52.6381 H         1 UNK         0.0794 
    127 H127       36.3743  -46.3199  -52.5136 H         1 UNK         0.3016 
@<TRIPOS>BOND
     1    1    2 1    
     2    1   67 1    
     3    1   68 1    
     4    1   69 1    
     5    2    3 2    
     6    2    4 am   BACKBONE|DICT|INTERRES
     7    4    5 1    
     8    4   70 1    
     9    5    6 1    
    10    5   65 1    
    11    5   71 1    
    12    6    7 1    
    13    6   72 1    
    14    6   73 1    
    15    7    8 1    
    16    8    9 1    
    17    8   74 1    
    18    8   75 1    
    19    9   10 ar   
    20    9   14 ar   
    21   10   11 ar   
    22   10   76 1    
    23   11   12 ar   
    24   11   48 1    
    25   12   13 ar   
    26   12   77 1    
    27   13   14 ar   
    28   13   15 1    
    29   14   78 1    
    30   15   16 1    
    31   15   79 1    
    32   15   80 1    
    33   16   17 1    
    34   17   18 1    
    35   17   81 1    
    36   17   82 1    
    37   18   19 1    
    38   18   22 1    
    39   18   83 1    
    40   19   20 am   BACKBONE|DICT|INTERRES
    41   19   21 2    
    42   20   84 1    
    43   20   85 1    
    44   22   23 am   BACKBONE|DICT|INTERRES
    45   22   86 1    
    46   23   24 2    
    47   23   25 1    
    48   25   26 1    
    49   25   27 1    
    50   25   87 1    
    51   26   88 1    
    52   26   89 1    
    53   26   90 1    
    54   27   28 am   BACKBONE|DICT|INTERRES
    55   27   91 1    
    56   28   29 2    
    57   28   30 1    
    58   30   31 1    
    59   30   32 1    
    60   30   92 1    
    61   31   93 1    
    62   31   94 1    
    63   31   95 1    
    64   32   33 am   BACKBONE|DICT|INTERRES
    65   32   96 1    
    66   33   34 2    
    67   33   35 1    
    68   35   36 1    
    69   35   37 1    
    70   35   97 1    
    71   36   98 1    
    72   36   99 1    
    73   36  100 1    
    74   37   38 am   BACKBONE|DICT|INTERRES
    75   37  101 1    
    76   38   39 2    
    77   38   40 1    
    78   40   41 1    
    79   40   42 1    
    80   40  102 1    
    81   41  103 1    
    82   41  104 1    
    83   41  105 1    
    84   42   43 am   BACKBONE|DICT|INTERRES
    85   42  106 1    
    86   43   44 2    
    87   43   45 1    
    88   45   46 1    
    89   45   49 1    
    90   45  107 1    
    91   46   47 1    
    92   46  108 1    
    93   46  109 1    
    94   47   48 1    
    95   48  110 1    
    96   48  111 1    
    97   49   50 am   BACKBONE|DICT|INTERRES
    98   49  112 1    
    99   50   51 2    
   100   50   52 1    
   101   52   53 1    
   102   52   54 1    
   103   52  113 1    
   104   53  114 1    
   105   53  115 1    
   106   53  116 1    
   107   54   55 am   BACKBONE|DICT|INTERRES
   108   54  117 1    
   109   55   56 2    
   110   55   57 1    
   111   57   58 1    
   112   57   59 1    
   113   57  118 1    
   114   58  119 1    
   115   58  120 1    
   116   58  121 1    
   117   59   60 am   BACKBONE|DICT|INTERRES
   118   59  122 1    
   119   60   61 2    
   120   60   62 1    
   121   62   63 1    
   122   62   64 1    
   123   62  123 1    
   124   63  124 1    
   125   63  125 1    
   126   63  126 1    
   127   64   65 am   BACKBONE|DICT|INTERRES
   128   64  127 1    
   129   65   66 2    
@<TRIPOS>SUBSTRUCTURE
     1 UNK         1 GROUP             0       ****    0 ROOT    
