@<TRIPOS>MOLECULE
3R134
127   129    1
SMALL
USER_CHARGES


@<TRIPOS>ATOM
      1 CA         29.9850  -43.0949  -50.9788 C.3       0 UNK        -0.1968 
      2 C          31.2528  -43.7024  -50.3950 C.2       0 UNK         0.4852 
      3 O          31.9798  -43.0221  -49.6700 O.2       0 UNK        -0.5359 
      4 N          31.5172  -44.9745  -50.7056 N.am      1 UNK        -0.4300 
      5 CA         32.6600  -45.7606  -50.2455 C.3       1 UNK         0.0863 
      6 C6         34.0178  -45.3002  -50.8539 C.3       11 UNK        -0.0953 
      7 S7         34.1255  -45.5104  -52.6633 S.3       11 UNK        -0.2369 
      8 C8         33.9728  -43.8027  -53.2728 C.3       11 UNK         0.0226 
      9 C9         33.1473  -43.7660  -54.5490 C.ar      11 UNK        -0.0699 
     10 C10        33.6697  -44.2700  -55.7424 C.ar      11 UNK        -0.0804 
     11 C11        32.8942  -44.2859  -56.9048 C.ar      11 UNK        -0.0871 
     12 C12        31.5889  -43.7879  -56.8697 C.ar      11 UNK        -0.1008 
     13 C13        31.0520  -43.2700  -55.6810 C.ar      11 UNK        -0.0735 
     14 C14        31.8468  -43.2561  -54.5307 C.ar      11 UNK        -0.0945 
     15 C15        29.6257  -42.7291  -55.5650 C.3       11 UNK         0.0169 
     16 S16        28.5863  -42.9057  -57.0529 S.3       11 UNK        -0.2669 
     17 C17        26.9584  -42.4181  -56.3875 C.3       11 UNK        -0.0850 
     18 CA         26.0759  -43.6382  -56.0159 C.3       10 UNK         0.0855 
     19 C          24.7179  -43.1566  -55.4351 C.2       10 UNK         0.5543 
     20 N          24.6027  -43.0659  -54.1174 N.am      10 UNK        -0.7343 
     21 O          23.7924  -42.8163  -56.1699 O.2       10 UNK        -0.5027 
     22 N          25.9331  -44.5476  -57.1614 N.am      10 UNK        -0.4495 
     23 C          25.2762  -45.7125  -57.1779 C.2       10 UNK         0.4903 
     24 O          24.6811  -46.1853  -56.2088 O.2       10 UNK        -0.4860 
     25 CA         25.2722  -46.4902  -58.5024 C.3       9 UNK         0.0227 
     26 CB         25.9691  -45.7694  -59.6770 C.3       9 UNK        -0.1964 
     27 N          25.9220  -47.7786  -58.2803 N.am      9 UNK        -0.4231 
     28 C          25.3539  -48.9721  -58.4892 C.2       9 UNK         0.5014 
     29 O          24.2078  -49.1270  -58.9151 O.2       9 UNK        -0.5270 
     30 CA         26.2105  -50.2141  -58.1990 C.3       8 UNK         0.0284 
     31 CB         27.0773  -50.5589  -59.4212 C.3       8 UNK        -0.1977 
     32 N          27.0605  -50.0776  -57.0133 N.am      8 UNK        -0.4342 
     33 C          26.6101  -50.0958  -55.7506 C.2       8 UNK         0.5039 
     34 O          25.4208  -50.2049  -55.4493 O.2       8 UNK        -0.5547 
     35 CA         27.6613  -50.0027  -54.6311 C.3       7 UNK         0.0281 
     36 CB         28.3738  -51.3506  -54.4320 C.3       7 UNK        -0.1963 
     37 N          28.6538  -48.9574  -54.8749 N.am      7 UNK        -0.4444 
     38 C          28.4117  -47.6427  -54.7824 C.2       7 UNK         0.5104 
     39 O          27.3383  -47.1617  -54.4226 O.2       7 UNK        -0.5100 
     40 CA         29.5696  -46.7039  -55.1562 C.3       6 UNK         0.0396 
     41 CB         30.4882  -46.4868  -53.9453 C.3       6 UNK        -0.1801 
     42 N          30.3567  -47.2070  -56.2828 N.am      6 UNK        -0.4747 
     43 C          29.8985  -47.3181  -57.5371 C.2       6 UNK         0.5012 
     44 O          28.7611  -46.9954  -57.8831 O.2       6 UNK        -0.5003 
     45 CA         30.8468  -47.9607  -58.5683 C.3       5 UNK         0.0782 
     46 C46        31.8139  -46.9270  -59.2071 C.3       11 UNK        -0.0868 
     47 S47        33.3629  -46.6481  -58.2709 S.3       11 UNK        -0.2515 
     48 C48        33.4793  -44.8335  -58.1969 C.3       11 UNK         0.0199 
     49 N          31.5483  -49.1318  -58.0305 N.am      5 UNK        -0.4607 
     50 C          30.9609  -50.2605  -57.6145 C.2       4 UNK         0.5031 
     51 O          29.7529  -50.4697  -57.6930 O.2       4 UNK        -0.5119 
     52 CA         31.8641  -51.3129  -56.9512 C.3       4 UNK         0.0263 
     53 CB         32.5099  -52.2159  -58.0136 C.3       4 UNK        -0.1967 
     54 N          32.9045  -50.7313  -56.0962 N.am      4 UNK        -0.4237 
     55 C          32.6678  -49.9723  -55.0170 C.2       3 UNK         0.4908 
     56 O          31.5382  -49.6594  -54.6344 O.2       3 UNK        -0.5102 
     57 CA         33.9098  -49.4247  -54.2937 C.3       3 UNK         0.0241 
     58 CB         34.4047  -48.1502  -54.9964 C.3       3 UNK        -0.1971 
     59 N          33.6690  -49.1326  -52.8767 N.am      3 UNK        -0.4139 
     60 C          33.4024  -50.0544  -51.9390 C.2       2 UNK         0.5016 
     61 O          33.3425  -51.2624  -52.1764 O.2       2 UNK        -0.5319 
     62 CA         33.2122  -49.5786  -50.4826 C.3       2 UNK         0.0286 
     63 CB         34.2250  -50.2659  -49.5489 C.3       2 UNK        -0.1963 
     64 N          33.3309  -48.1269  -50.3034 N.am      2 UNK        -0.4790 
     65 C          32.3335  -47.2513  -50.4808 C.2       1 UNK         0.5024 
     66 O          31.1953  -47.5832  -50.8229 O.2       1 UNK        -0.4888 
     67 H67        29.5101  -43.7573  -51.7024 H         1 UNK         0.0892 
     68 H68        29.2685  -42.8890  -50.1841 H         1 UNK         0.0892 
     69 H69        30.2146  -42.1554  -51.4808 H         1 UNK         0.0892 
     70 H70        30.8573  -45.5258  -51.2398 H         1 UNK         0.3107 
     71 H71        32.7192  -45.6383  -49.1621 H         1 UNK         0.0773 
     72 H72        34.2113  -44.2588  -50.5952 H         1 UNK         0.0680 
     73 H73        34.8437  -45.8520  -50.4032 H         1 UNK         0.0680 
     74 H74        34.9673  -43.3954  -53.4590 H         1 UNK         0.0650 
     75 H75        33.5151  -43.1696  -52.5116 H         1 UNK         0.0650 
     76 H76        34.6745  -44.6700  -55.7597 H         1 UNK         0.1397 
     77 H77        31.0011  -43.8149  -57.7753 H         1 UNK         0.1363 
     78 H78        31.4404  -42.8678  -53.6076 H         1 UNK         0.1355 
     79 H79        29.6717  -41.6726  -55.2971 H         1 UNK         0.0707 
     80 H80        29.1297  -43.2418  -54.7392 H         1 UNK         0.0707 
     81 H81        27.1018  -41.7681  -55.5219 H         1 UNK         0.1034 
     82 H82        26.4591  -41.8042  -57.1400 H         1 UNK         0.1034 
     83 H83        26.5926  -44.2055  -55.2388 H         1 UNK         0.0482 
     84 H84        25.3575  -43.3381  -53.5072 H         1 UNK         0.3460 
     85 H85        23.7348  -42.7379  -53.7231 H         1 UNK         0.3460 
     86 H86        26.4032  -44.2529  -58.0038 H         1 UNK         0.2989 
     87 H87        24.2230  -46.6265  -58.7714 H         1 UNK         0.0559 
     88 H88        27.0284  -45.5940  -59.4836 H         1 UNK         0.0848 
     89 H89        25.4996  -44.8077  -59.8884 H         1 UNK         0.0848 
     90 H90        25.8996  -46.3611  -60.5900 H         1 UNK         0.0848 
     91 H91        26.8719  -47.7343  -57.9224 H         1 UNK         0.3144 
     92 H92        25.5290  -51.0500  -58.0264 H         1 UNK         0.0727 
     93 H93        27.6256  -51.4887  -59.2683 H         1 UNK         0.0790 
     94 H94        27.8035  -49.7735  -59.6348 H         1 UNK         0.0790 
     95 H95        26.4628  -50.6882  -60.3132 H         1 UNK         0.0790 
     96 H96        28.0668  -50.0593  -57.1769 H         1 UNK         0.3215 
     97 H97        27.1379  -49.7593  -53.7038 H         1 UNK         0.0863 
     98 H98        29.0849  -51.3048  -53.6067 H         1 UNK         0.0808 
     99 H99        28.9193  -51.6574  -55.3246 H         1 UNK         0.0808 
    100 H100       27.6567  -52.1393  -54.2008 H         1 UNK         0.0808 
    101 H101       29.5995  -49.2537  -55.0972 H         1 UNK         0.3118 
    102 H102       29.1485  -45.7402  -55.4498 H         1 UNK         0.0546 
    103 H103       29.9692  -45.9284  -53.1670 H         1 UNK         0.0828 
    104 H104       31.3820  -45.9289  -54.2145 H         1 UNK         0.0828 
    105 H105       30.8144  -47.4297  -53.5068 H         1 UNK         0.0828 
    106 H106       31.2897  -47.5341  -56.0790 H         1 UNK         0.3005 
    107 H107       30.1986  -48.3282  -59.3677 H         1 UNK         0.1257 
    108 H108       31.3046  -45.9789  -59.3905 H         1 UNK         0.0775 
    109 H109       32.1089  -47.2868  -60.1939 H         1 UNK         0.0775 
    110 H110       34.5316  -44.5527  -58.2616 H         1 UNK         0.0840 
    111 H111       32.9993  -44.3826  -59.0667 H         1 UNK         0.0840 
    112 H112       32.5470  -49.0301  -57.9217 H         1 UNK         0.2987 
    113 H113       31.2290  -51.9344  -56.3166 H         1 UNK         0.0785 
    114 H114       31.7503  -52.6731  -58.6495 H         1 UNK         0.0798 
    115 H115       33.0754  -53.0272  -57.5549 H         1 UNK         0.0798 
    116 H116       33.1864  -51.6590  -58.6633 H         1 UNK         0.0798 
    117 H117       33.8615  -50.9306  -56.3504 H         1 UNK         0.3079 
    118 H118       34.6981  -50.1788  -54.3434 H         1 UNK         0.0794 
    119 H119       33.6393  -47.3727  -55.0099 H         1 UNK         0.0786 
    120 H120       34.6788  -48.3528  -56.0323 H         1 UNK         0.0786 
    121 H121       35.2897  -47.7428  -54.5076 H         1 UNK         0.0786 
    122 H122       33.6799  -48.1608  -52.6032 H         1 UNK         0.3032 
    123 H123       32.2100  -49.8927  -50.1811 H         1 UNK         0.1094 
    124 H124       35.2529  -50.0138  -49.8125 H         1 UNK         0.0794 
    125 H125       34.0641  -49.9803  -48.5092 H         1 UNK         0.0794 
    126 H126       34.1333  -51.3519  -49.5992 H         1 UNK         0.0794 
    127 H127       34.2418  -47.7805  -50.0364 H         1 UNK         0.3016 
@<TRIPOS>BOND
     1    1    2 1    
     2    1   67 1    
     3    1   68 1    
     4    1   69 1    
     5    2    3 2    
     6    2    4 am   BACKBONE|DICT|INTERRES
     7    4    5 1    
     8    4   70 1    
     9    5    6 1    
    10    5   65 1    
    11    5   71 1    
    12    6    7 1    
    13    6   72 1    
    14    6   73 1    
    15    7    8 1    
    16    8    9 1    
    17    8   74 1    
    18    8   75 1    
    19    9   10 ar   
    20    9   14 ar   
    21   10   11 ar   
    22   10   76 1    
    23   11   12 ar   
    24   11   48 1    
    25   12   13 ar   
    26   12   77 1    
    27   13   14 ar   
    28   13   15 1    
    29   14   78 1    
    30   15   16 1    
    31   15   79 1    
    32   15   80 1    
    33   16   17 1    
    34   17   18 1    
    35   17   81 1    
    36   17   82 1    
    37   18   19 1    
    38   18   22 1    
    39   18   83 1    
    40   19   20 am   BACKBONE|DICT|INTERRES
    41   19   21 2    
    42   20   84 1    
    43   20   85 1    
    44   22   23 am   BACKBONE|DICT|INTERRES
    45   22   86 1    
    46   23   24 2    
    47   23   25 1    
    48   25   26 1    
    49   25   27 1    
    50   25   87 1    
    51   26   88 1    
    52   26   89 1    
    53   26   90 1    
    54   27   28 am   BACKBONE|DICT|INTERRES
    55   27   91 1    
    56   28   29 2    
    57   28   30 1    
    58   30   31 1    
    59   30   32 1    
    60   30   92 1    
    61   31   93 1    
    62   31   94 1    
    63   31   95 1    
    64   32   33 am   BACKBONE|DICT|INTERRES
    65   32   96 1    
    66   33   34 2    
    67   33   35 1    
    68   35   36 1    
    69   35   37 1    
    70   35   97 1    
    71   36   98 1    
    72   36   99 1    
    73   36  100 1    
    74   37   38 am   BACKBONE|DICT|INTERRES
    75   37  101 1    
    76   38   39 2    
    77   38   40 1    
    78   40   41 1    
    79   40   42 1    
    80   40  102 1    
    81   41  103 1    
    82   41  104 1    
    83   41  105 1    
    84   42   43 am   BACKBONE|DICT|INTERRES
    85   42  106 1    
    86   43   44 2    
    87   43   45 1    
    88   45   46 1    
    89   45   49 1    
    90   45  107 1    
    91   46   47 1    
    92   46  108 1    
    93   46  109 1    
    94   47   48 1    
    95   48  110 1    
    96   48  111 1    
    97   49   50 am   BACKBONE|DICT|INTERRES
    98   49  112 1    
    99   50   51 2    
   100   50   52 1    
   101   52   53 1    
   102   52   54 1    
   103   52  113 1    
   104   53  114 1    
   105   53  115 1    
   106   53  116 1    
   107   54   55 am   BACKBONE|DICT|INTERRES
   108   54  117 1    
   109   55   56 2    
   110   55   57 1    
   111   57   58 1    
   112   57   59 1    
   113   57  118 1    
   114   58  119 1    
   115   58  120 1    
   116   58  121 1    
   117   59   60 am   BACKBONE|DICT|INTERRES
   118   59  122 1    
   119   60   61 2    
   120   60   62 1    
   121   62   63 1    
   122   62   64 1    
   123   62  123 1    
   124   63  124 1    
   125   63  125 1    
   126   63  126 1    
   127   64   65 am   BACKBONE|DICT|INTERRES
   128   64  127 1    
   129   65   66 2    
@<TRIPOS>SUBSTRUCTURE
     1 UNK         1 GROUP             0       ****    0 ROOT    
