@<TRIPOS>MOLECULE
3R134
127   129    1
SMALL
USER_CHARGES


@<TRIPOS>ATOM
      1 CA         38.2323  -47.6132  -52.9466 C.3       0 UNK        -0.1968 
      2 C          36.8188  -47.5142  -53.4994 C.2       0 UNK         0.4852 
      3 O          36.1922  -48.5409  -53.7710 O.2       0 UNK        -0.5359 
      4 N          36.2945  -46.2880  -53.6479 N.am      1 UNK        -0.4300 
      5 CA         34.9646  -46.0074  -54.2070 C.3       1 UNK         0.0863 
      6 C6         34.8265  -44.5501  -54.7103 C.3       11 UNK        -0.0953 
      7 S7         34.7687  -43.2924  -53.3894 S.3       11 UNK        -0.2369 
      8 C8         33.5433  -42.1229  -54.0643 C.3       11 UNK         0.0226 
      9 C9         32.1284  -42.6907  -54.0896 C.ar      11 UNK        -0.0699 
     10 C10        31.4303  -42.8807  -52.8939 C.ar      11 UNK        -0.0804 
     11 C11        30.1168  -43.3605  -52.9002 C.ar      11 UNK        -0.0871 
     12 C12        29.4987  -43.6366  -54.1253 C.ar      11 UNK        -0.1008 
     13 C13        30.1898  -43.4739  -55.3291 C.ar      11 UNK        -0.0735 
     14 C14        31.5045  -42.9960  -55.3045 C.ar      11 UNK        -0.0945 
     15 C15        29.5162  -43.8190  -56.6515 C.3       11 UNK         0.0169 
     16 S16        28.0995  -42.7206  -56.9808 S.3       11 UNK        -0.2669 
     17 C17        28.1280  -42.5662  -58.7994 C.3       11 UNK        -0.0850 
     18 CA         26.9599  -43.3196  -59.5056 C.3       10 UNK         0.0855 
     19 C          26.8359  -42.9436  -61.0147 C.2       10 UNK         0.5543 
     20 N          26.7532  -41.6584  -61.3330 N.am      10 UNK        -0.7343 
     21 O          26.7789  -43.7922  -61.9034 O.2       10 UNK        -0.5027 
     22 N          26.9600  -44.7761  -59.2741 N.am      10 UNK        -0.4495 
     23 C          27.9315  -45.6412  -59.5928 C.2       10 UNK         0.4903 
     24 O          29.0524  -45.3092  -59.9822 O.2       10 UNK        -0.4860 
     25 CA         27.5784  -47.1350  -59.4656 C.3       9 UNK         0.0227 
     26 CB         28.7864  -48.0594  -59.7081 C.3       9 UNK        -0.1964 
     27 N          26.9940  -47.4614  -58.1653 N.am      9 UNK        -0.4231 
     28 C          25.6998  -47.3722  -57.8348 C.2       9 UNK         0.5014 
     29 O          24.8458  -46.8787  -58.5745 O.2       9 UNK        -0.5270 
     30 CA         25.3074  -47.9228  -56.4470 C.3       8 UNK         0.0284 
     31 CB         23.7927  -48.1797  -56.3024 C.3       8 UNK        -0.1977 
     32 N          26.0844  -49.1124  -56.0708 N.am      8 UNK        -0.4342 
     33 C          26.1474  -50.2922  -56.7089 C.2       8 UNK         0.5039 
     34 O          25.4353  -50.5932  -57.6679 O.2       8 UNK        -0.5547 
     35 CA         27.2091  -51.3052  -56.2332 C.3       7 UNK         0.0281 
     36 CB         28.3404  -51.4108  -57.2697 C.3       7 UNK        -0.1963 
     37 N          27.7966  -50.9836  -54.9296 N.am      7 UNK        -0.4444 
     38 C          27.1847  -51.1647  -53.7518 C.2       7 UNK         0.5104 
     39 O          26.0766  -51.6869  -53.6277 O.2       7 UNK        -0.5100 
     40 CA         27.9170  -50.6388  -52.5037 C.3       6 UNK         0.0396 
     41 CB         28.9129  -51.6837  -51.9773 C.3       6 UNK        -0.1801 
     42 N          28.6137  -49.3684  -52.7316 N.am      6 UNK        -0.4747 
     43 C          28.0197  -48.2194  -53.0895 C.2       6 UNK         0.5012 
     44 O          26.8061  -48.0992  -53.2564 O.2       6 UNK        -0.5003 
     45 CA         28.9438  -47.0208  -53.3729 C.3       5 UNK         0.0782 
     46 C46        29.4551  -46.3669  -52.0616 C.3       11 UNK        -0.0868 
     47 S47        28.3278  -45.0491  -51.4957 S.3       11 UNK        -0.2515 
     48 C48        29.3874  -43.5607  -51.5721 C.3       11 UNK         0.0199 
     49 N          30.0345  -47.3768  -54.2820 N.am      5 UNK        -0.4607 
     50 C          29.8810  -47.8165  -55.5378 C.2       4 UNK         0.5031 
     51 O          28.7950  -47.9004  -56.1057 O.2       4 UNK        -0.5119 
     52 CA         31.1427  -48.2946  -56.2712 C.3       4 UNK         0.0263 
     53 CB         31.8499  -47.1214  -56.9711 C.3       4 UNK        -0.1967 
     54 N          32.0660  -48.9919  -55.3718 N.am      4 UNK        -0.4237 
     55 C          31.8008  -50.1693  -54.7840 C.2       3 UNK         0.4908 
     56 O          30.7852  -50.8298  -55.0041 O.2       3 UNK        -0.5102 
     57 CA         32.8129  -50.6664  -53.7373 C.3       3 UNK         0.0241 
     58 CB         34.0156  -51.3391  -54.4172 C.3       3 UNK        -0.1971 
     59 N          33.2798  -49.5901  -52.8590 N.am      3 UNK        -0.4139 
     60 C          32.4997  -48.9450  -51.9759 C.2       2 UNK         0.5016 
     61 O          31.3297  -49.2510  -51.7480 O.2       2 UNK        -0.5319 
     62 CA         33.1018  -47.7113  -51.2741 C.3       2 UNK         0.0286 
     63 CB         33.7760  -48.1167  -49.9546 C.3       2 UNK        -0.1963 
     64 N          34.0643  -46.9890  -52.1122 N.am      2 UNK        -0.4790 
     65 C          33.7859  -46.4611  -53.3142 C.2       1 UNK         0.5024 
     66 O          32.6426  -46.3980  -53.7592 O.2       1 UNK        -0.4888 
     67 H67        38.2341  -48.1901  -52.0222 H         1 UNK         0.0892 
     68 H68        38.8795  -48.1169  -53.6639 H         1 UNK         0.0892 
     69 H69        38.6578  -46.6322  -52.7361 H         1 UNK         0.0892 
     70 H70        36.8350  -45.4755  -53.3842 H         1 UNK         0.3107 
     71 H71        34.8836  -46.6323  -55.0993 H         1 UNK         0.0773 
     72 H72        33.9325  -44.4683  -55.3294 H         1 UNK         0.0680 
     73 H73        35.6575  -44.3061  -55.3738 H         1 UNK         0.0680 
     74 H74        33.5509  -41.2198  -53.4525 H         1 UNK         0.0650 
     75 H75        33.8565  -41.8148  -55.0631 H         1 UNK         0.0650 
     76 H76        31.9165  -42.6496  -51.9558 H         1 UNK         0.1397 
     77 H77        28.4757  -43.9838  -54.1476 H         1 UNK         0.1363 
     78 H78        32.0414  -42.8549  -56.2324 H         1 UNK         0.1355 
     79 H79        29.1681  -44.8529  -56.6266 H         1 UNK         0.0707 
     80 H80        30.2393  -43.7600  -57.4658 H         1 UNK         0.0707 
     81 H81        28.0693  -41.4967  -59.0045 H         1 UNK         0.1034 
     82 H82        29.0935  -42.8748  -59.2002 H         1 UNK         0.1034 
     83 H83        26.0281  -42.9735  -59.0565 H         1 UNK         0.0482 
     84 H84        26.7586  -40.9392  -60.6270 H         1 UNK         0.3460 
     85 H85        26.6602  -41.4028  -62.3040 H         1 UNK         0.3460 
     86 H86        26.0707  -45.1735  -58.9951 H         1 UNK         0.2989 
     87 H87        26.8437  -47.3511  -60.2440 H         1 UNK         0.0559 
     88 H88        29.5722  -47.8961  -58.9716 H         1 UNK         0.0848 
     89 H89        29.2208  -47.8883  -60.6939 H         1 UNK         0.0848 
     90 H90        28.4970  -49.1093  -59.6622 H         1 UNK         0.0848 
     91 H91        27.6455  -47.7689  -57.4425 H         1 UNK         0.3144 
     92 H92        25.5800  -47.1479  -55.7290 H         1 UNK         0.0727 
     93 H93        23.4325  -48.9032  -57.0343 H         1 UNK         0.0790 
     94 H94        23.2248  -47.2602  -56.4486 H         1 UNK         0.0790 
     95 H95        23.5487  -48.5562  -55.3090 H         1 UNK         0.0790 
     96 H96        26.7225  -48.9712  -55.2964 H         1 UNK         0.3215 
     97 H97        26.7200  -52.2790  -56.1606 H         1 UNK         0.0863 
     98 H98        29.0753  -52.1626  -56.9813 H         1 UNK         0.0808 
     99 H99        28.8629  -50.4616  -57.3908 H         1 UNK         0.0808 
    100 H100       27.9514  -51.6958  -58.2482 H         1 UNK         0.0808 
    101 H101       28.7439  -50.6168  -54.9308 H         1 UNK         0.3118 
    102 H102       27.1668  -50.4653  -51.7296 H         1 UNK         0.0546 
    103 H103       28.4124  -52.6300  -51.7678 H         1 UNK         0.0828 
    104 H104       29.3822  -51.3525  -51.0508 H         1 UNK         0.0828 
    105 H105       29.7055  -51.8858  -52.6982 H         1 UNK         0.0828 
    106 H106       29.6198  -49.3652  -52.5730 H         1 UNK         0.3005 
    107 H107       28.3408  -46.2944  -53.9207 H         1 UNK         0.1257 
    108 H108       30.4445  -45.9351  -52.2133 H         1 UNK         0.0775 
    109 H109       29.5847  -47.0952  -51.2586 H         1 UNK         0.0775 
    110 H110       28.7712  -42.6823  -51.3764 H         1 UNK         0.0840 
    111 H111       30.1061  -43.6202  -50.7531 H         1 UNK         0.0840 
    112 H112       30.9800  -47.2405  -53.9357 H         1 UNK         0.2987 
    113 H113       30.8301  -49.0050  -57.0389 H         1 UNK         0.0785 
    114 H114       32.7276  -47.4580  -57.5228 H         1 UNK         0.0798 
    115 H115       32.1679  -46.3515  -56.2690 H         1 UNK         0.0798 
    116 H116       31.1840  -46.6382  -57.6872 H         1 UNK         0.0798 
    117 H117       32.9032  -48.4966  -55.1054 H         1 UNK         0.3079 
    118 H118       32.3096  -51.4122  -53.1182 H         1 UNK         0.0794 
    119 H119       33.6916  -52.1523  -55.0682 H         1 UNK         0.0786 
    120 H120       34.6979  -51.7656  -53.6816 H         1 UNK         0.0786 
    121 H121       34.5825  -50.6356  -55.0287 H         1 UNK         0.0786 
    122 H122       34.2323  -49.2690  -52.9935 H         1 UNK         0.3032 
    123 H123       32.2806  -47.0295  -51.0454 H         1 UNK         0.1094 
    124 H124       34.1338  -47.2445  -49.4072 H         1 UNK         0.0794 
    125 H125       33.0737  -48.6397  -49.3037 H         1 UNK         0.0794 
    126 H126       34.6243  -48.7820  -50.1206 H         1 UNK         0.0794 
    127 H127       35.0296  -47.0038  -51.8172 H         1 UNK         0.3016 
@<TRIPOS>BOND
     1    1    2 1    
     2    1   67 1    
     3    1   68 1    
     4    1   69 1    
     5    2    3 2    
     6    2    4 am   BACKBONE|DICT|INTERRES
     7    4    5 1    
     8    4   70 1    
     9    5    6 1    
    10    5   65 1    
    11    5   71 1    
    12    6    7 1    
    13    6   72 1    
    14    6   73 1    
    15    7    8 1    
    16    8    9 1    
    17    8   74 1    
    18    8   75 1    
    19    9   10 ar   
    20    9   14 ar   
    21   10   11 ar   
    22   10   76 1    
    23   11   12 ar   
    24   11   48 1    
    25   12   13 ar   
    26   12   77 1    
    27   13   14 ar   
    28   13   15 1    
    29   14   78 1    
    30   15   16 1    
    31   15   79 1    
    32   15   80 1    
    33   16   17 1    
    34   17   18 1    
    35   17   81 1    
    36   17   82 1    
    37   18   19 1    
    38   18   22 1    
    39   18   83 1    
    40   19   20 am   BACKBONE|DICT|INTERRES
    41   19   21 2    
    42   20   84 1    
    43   20   85 1    
    44   22   23 am   BACKBONE|DICT|INTERRES
    45   22   86 1    
    46   23   24 2    
    47   23   25 1    
    48   25   26 1    
    49   25   27 1    
    50   25   87 1    
    51   26   88 1    
    52   26   89 1    
    53   26   90 1    
    54   27   28 am   BACKBONE|DICT|INTERRES
    55   27   91 1    
    56   28   29 2    
    57   28   30 1    
    58   30   31 1    
    59   30   32 1    
    60   30   92 1    
    61   31   93 1    
    62   31   94 1    
    63   31   95 1    
    64   32   33 am   BACKBONE|DICT|INTERRES
    65   32   96 1    
    66   33   34 2    
    67   33   35 1    
    68   35   36 1    
    69   35   37 1    
    70   35   97 1    
    71   36   98 1    
    72   36   99 1    
    73   36  100 1    
    74   37   38 am   BACKBONE|DICT|INTERRES
    75   37  101 1    
    76   38   39 2    
    77   38   40 1    
    78   40   41 1    
    79   40   42 1    
    80   40  102 1    
    81   41  103 1    
    82   41  104 1    
    83   41  105 1    
    84   42   43 am   BACKBONE|DICT|INTERRES
    85   42  106 1    
    86   43   44 2    
    87   43   45 1    
    88   45   46 1    
    89   45   49 1    
    90   45  107 1    
    91   46   47 1    
    92   46  108 1    
    93   46  109 1    
    94   47   48 1    
    95   48  110 1    
    96   48  111 1    
    97   49   50 am   BACKBONE|DICT|INTERRES
    98   49  112 1    
    99   50   51 2    
   100   50   52 1    
   101   52   53 1    
   102   52   54 1    
   103   52  113 1    
   104   53  114 1    
   105   53  115 1    
   106   53  116 1    
   107   54   55 am   BACKBONE|DICT|INTERRES
   108   54  117 1    
   109   55   56 2    
   110   55   57 1    
   111   57   58 1    
   112   57   59 1    
   113   57  118 1    
   114   58  119 1    
   115   58  120 1    
   116   58  121 1    
   117   59   60 am   BACKBONE|DICT|INTERRES
   118   59  122 1    
   119   60   61 2    
   120   60   62 1    
   121   62   63 1    
   122   62   64 1    
   123   62  123 1    
   124   63  124 1    
   125   63  125 1    
   126   63  126 1    
   127   64   65 am   BACKBONE|DICT|INTERRES
   128   64  127 1    
   129   65   66 2    
@<TRIPOS>SUBSTRUCTURE
     1 UNK         1 GROUP             0       ****    0 ROOT    
