@<TRIPOS>MOLECULE
3R134
127   129    1
SMALL
USER_CHARGES


@<TRIPOS>ATOM
      1 CA         38.6448  -46.1110  -55.8905 C.3       0 UNK        -0.1968 
      2 C          37.6933  -47.2356  -55.5090 C.2       0 UNK         0.4852 
      3 O          38.1213  -48.3847  -55.3916 O.2       0 UNK        -0.5359 
      4 N          36.4072  -46.9126  -55.3164 N.am      1 UNK        -0.4300 
      5 CA         35.3480  -47.8658  -54.9557 C.3       1 UNK         0.0863 
      6 C6         33.9300  -47.2908  -55.1956 C.3       11 UNK        -0.0953 
      7 S7         33.6621  -46.6729  -56.8907 S.3       11 UNK        -0.2369 
      8 C8         33.5343  -44.8763  -56.6179 C.3       11 UNK         0.0226 
      9 C9         32.2048  -44.4813  -55.9887 C.ar      11 UNK        -0.0699 
     10 C10        32.1110  -44.2430  -54.6138 C.ar      11 UNK        -0.0804 
     11 C11        30.8935  -43.8681  -54.0385 C.ar      11 UNK        -0.0871 
     12 C12        29.7690  -43.7034  -54.8535 C.ar      11 UNK        -0.1008 
     13 C13        29.8507  -43.9361  -56.2296 C.ar      11 UNK        -0.0735 
     14 C14        31.0696  -44.3298  -56.7901 C.ar      11 UNK        -0.0945 
     15 C15        28.6290  -43.7480  -57.1149 C.3       11 UNK         0.0169 
     16 S16        27.4439  -45.1100  -56.9050 S.3       11 UNK        -0.2669 
     17 C17        26.0780  -44.2676  -56.0281 C.3       11 UNK        -0.0850 
     18 CA         24.8151  -45.1559  -55.8571 C.3       10 UNK         0.0855 
     19 C          23.6770  -44.3893  -55.1236 C.2       10 UNK         0.5543 
     20 N          22.4872  -44.2555  -55.6970 N.am      10 UNK        -0.7343 
     21 O          23.8765  -43.9087  -54.0109 O.2       10 UNK        -0.5027 
     22 N          24.4205  -45.7741  -57.1314 N.am      10 UNK        -0.4495 
     23 C          23.7681  -46.9302  -57.2805 C.2       10 UNK         0.4903 
     24 O          23.3051  -47.5817  -56.3448 O.2       10 UNK        -0.4860 
     25 CA         23.6544  -47.4881  -58.7125 C.3       9 UNK         0.0227 
     26 CB         22.3735  -46.9891  -59.4093 C.3       9 UNK        -0.1964 
     27 N          24.8567  -47.2724  -59.5374 N.am      9 UNK        -0.4231 
     28 C          25.3474  -46.1240  -60.0311 C.2       9 UNK         0.5014 
     29 O          24.8033  -45.0282  -59.8857 O.2       9 UNK        -0.5270 
     30 CA         26.7194  -46.2158  -60.7142 C.3       8 UNK         0.0284 
     31 CB         27.2876  -44.8412  -61.1166 C.3       8 UNK        -0.1977 
     32 N          27.6465  -46.8686  -59.7929 N.am      8 UNK        -0.4342 
     33 C          28.4228  -47.9184  -60.0797 C.2       8 UNK         0.5039 
     34 O          28.5173  -48.4189  -61.2011 O.2       8 UNK        -0.5547 
     35 CA         29.2143  -48.5336  -58.9115 C.3       7 UNK         0.0281 
     36 CB         30.6254  -47.9283  -58.8405 C.3       7 UNK        -0.1963 
     37 N          28.5700  -48.3892  -57.6014 N.am      7 UNK        -0.4444 
     38 C          27.3850  -48.9100  -57.2438 C.2       7 UNK         0.5104 
     39 O          26.6545  -49.5293  -58.0183 O.2       7 UNK        -0.5100 
     40 CA         26.9392  -48.7065  -55.7838 C.3       6 UNK         0.0396 
     41 CB         26.3282  -49.9824  -55.1777 C.3       6 UNK        -0.1801 
     42 N          28.0461  -48.2434  -54.9473 N.am      6 UNK        -0.4747 
     43 C          27.9694  -47.3793  -53.9301 C.2       6 UNK         0.5012 
     44 O          26.9084  -46.9215  -53.5037 O.2       6 UNK        -0.5003 
     45 CA         29.3130  -46.9792  -53.2775 C.3       5 UNK         0.0782 
     46 C46        29.1384  -45.9067  -52.1714 C.3       11 UNK        -0.0868 
     47 S47        30.7370  -45.2224  -51.6205 S.3       11 UNK        -0.2515 
     48 C48        30.7976  -43.6464  -52.5354 C.3       11 UNK         0.0199 
     49 N          30.0484  -48.1519  -52.7868 N.am      5 UNK        -0.4607 
     50 C          30.7036  -49.0431  -53.5383 C.2       4 UNK         0.5031 
     51 O          30.7529  -48.9746  -54.7683 O.2       4 UNK        -0.5119 
     52 CA         31.3841  -50.2112  -52.7992 C.3       4 UNK         0.0263 
     53 CB         32.1384  -51.1528  -53.7569 C.3       4 UNK        -0.1967 
     54 N          32.2949  -49.7629  -51.7385 N.am      4 UNK        -0.4237 
     55 C          31.9085  -49.3857  -50.5090 C.2       3 UNK         0.4908 
     56 O          30.7249  -49.2952  -50.1782 O.2       3 UNK        -0.5102 
     57 CA         32.9901  -49.0796  -49.4555 C.3       3 UNK         0.0241 
     58 CB         33.0569  -50.2127  -48.4175 C.3       3 UNK        -0.1971 
     59 N          34.3254  -48.8798  -50.0203 N.am      3 UNK        -0.4139 
     60 C          34.7584  -47.7318  -50.5551 C.2       2 UNK         0.5016 
     61 O          34.0856  -46.7016  -50.6030 O.2       2 UNK        -0.5319 
     62 CA         36.1711  -47.7228  -51.1706 C.3       2 UNK         0.0286 
     63 CB         37.0425  -48.9472  -50.8039 C.3       2 UNK        -0.1963 
     64 N          36.0928  -47.5507  -52.6252 N.am      2 UNK        -0.4790 
     65 C          35.4536  -48.3513  -53.4943 C.2       1 UNK         0.5024 
     66 O          34.9236  -49.4165  -53.1745 O.2       1 UNK        -0.4888 
     67 H67        38.1345  -45.1508  -55.9644 H         1 UNK         0.0892 
     68 H68        39.1081  -46.3228  -56.8538 H         1 UNK         0.0892 
     69 H69        39.4346  -46.0189  -55.1454 H         1 UNK         0.0892 
     70 H70        36.1096  -45.9578  -55.4515 H         1 UNK         0.3107 
     71 H71        35.4635  -48.7462  -55.5919 H         1 UNK         0.0773 
     72 H72        33.1848  -48.0670  -55.0218 H         1 UNK         0.0680 
     73 H73        33.7100  -46.5034  -54.4752 H         1 UNK         0.0680 
     74 H74        34.3682  -44.5365  -56.0023 H         1 UNK         0.0650 
     75 H75        33.6432  -44.3711  -57.5787 H         1 UNK         0.0650 
     76 H76        32.9827  -44.3553  -53.9840 H         1 UNK         0.1397 
     77 H77        28.8256  -43.4040  -54.4184 H         1 UNK         0.1363 
     78 H78        31.1409  -44.5098  -57.8540 H         1 UNK         0.1355 
     79 H79        28.9223  -43.7038  -58.1648 H         1 UNK         0.0707 
     80 H80        28.1595  -42.7887  -56.8930 H         1 UNK         0.0707 
     81 H81        25.8225  -43.3595  -56.5773 H         1 UNK         0.1034 
     82 H82        26.4461  -43.9458  -55.0522 H         1 UNK         0.1034 
     83 H83        25.0858  -45.9672  -55.1813 H         1 UNK         0.0482 
     84 H84        21.7553  -43.7595  -55.2133 H         1 UNK         0.3460 
     85 H85        22.3170  -44.6518  -56.6072 H         1 UNK         0.3460 
     86 H86        24.7136  -45.2916  -57.9754 H         1 UNK         0.2989 
     87 H87        23.5683  -48.5715  -58.6134 H         1 UNK         0.0559 
     88 H88        22.3568  -45.9041  -59.5140 H         1 UNK         0.0848 
     89 H89        21.4881  -47.2697  -58.8374 H         1 UNK         0.0848 
     90 H90        22.2675  -47.4237  -60.4032 H         1 UNK         0.0848 
     91 H91        25.4312  -48.0982  -59.6546 H         1 UNK         0.3144 
     92 H92        26.5849  -46.8138  -61.6180 H         1 UNK         0.0727 
     93 H93        28.2568  -44.9423  -61.6051 H         1 UNK         0.0790 
     94 H94        27.4148  -44.1888  -60.2518 H         1 UNK         0.0790 
     95 H95        26.6228  -44.3329  -61.8162 H         1 UNK         0.0790 
     96 H96        27.6289  -46.5331  -58.8369 H         1 UNK         0.3215 
     97 H97        29.3090  -49.6028  -59.1125 H         1 UNK         0.0863 
     98 H98        31.2297  -48.4176  -58.0758 H         1 UNK         0.0808 
     99 H99        30.5970  -46.8623  -58.6122 H         1 UNK         0.0808 
    100 H100       31.1503  -48.0448  -59.7896 H         1 UNK         0.0808 
    101 H101       29.0795  -47.8573  -56.9111 H         1 UNK         0.3118 
    102 H102       26.1692  -47.9360  -55.8097 H         1 UNK         0.0546 
    103 H103       25.4679  -50.3195  -55.7574 H         1 UNK         0.0828 
    104 H104       25.9796  -49.8090  -54.1596 H         1 UNK         0.0828 
    105 H105       27.0496  -50.7997  -55.1524 H         1 UNK         0.0828 
    106 H106       28.9672  -48.6245  -55.1573 H         1 UNK         0.3005 
    107 H107       29.9052  -46.5296  -54.0780 H         1 UNK         0.1257 
    108 H108       28.6278  -46.3318  -51.3055 H         1 UNK         0.0775 
    109 H109       28.5087  -45.0848  -52.5169 H         1 UNK         0.0775 
    110 H110       29.9225  -43.0445  -52.2850 H         1 UNK         0.0840 
    111 H111       31.6638  -43.0760  -52.1968 H         1 UNK         0.0840 
    112 H112       30.0511  -48.2958  -51.7823 H         1 UNK         0.2987 
    113 H113       30.5847  -50.7973  -52.3404 H         1 UNK         0.0785 
    114 H114       32.9090  -50.6269  -54.3207 H         1 UNK         0.0798 
    115 H115       31.4559  -51.5966  -54.4828 H         1 UNK         0.0798 
    116 H116       32.6150  -51.9723  -53.2189 H         1 UNK         0.0798 
    117 H117       33.2812  -49.7442  -51.9768 H         1 UNK         0.3079 
    118 H118       32.6863  -48.1664  -48.9386 H         1 UNK         0.0794 
    119 H119       33.3533  -51.1597  -48.8704 H         1 UNK         0.0786 
    120 H120       32.0861  -50.3678  -47.9444 H         1 UNK         0.0786 
    121 H121       33.7676  -49.9822  -47.6234 H         1 UNK         0.0786 
    122 H122       34.9381  -49.6824  -50.0450 H         1 UNK         0.3032 
    123 H123       36.6672  -46.8357  -50.7729 H         1 UNK         0.1094 
    124 H124       38.0501  -48.8379  -51.2054 H         1 UNK         0.0794 
    125 H125       37.1424  -49.0493  -49.7224 H         1 UNK         0.0794 
    126 H126       36.6400  -49.8836  -51.1912 H         1 UNK         0.0794 
    127 H127       36.4718  -46.6855  -52.9834 H         1 UNK         0.3016 
@<TRIPOS>BOND
     1    1    2 1    
     2    1   67 1    
     3    1   68 1    
     4    1   69 1    
     5    2    3 2    
     6    2    4 am   BACKBONE|DICT|INTERRES
     7    4    5 1    
     8    4   70 1    
     9    5    6 1    
    10    5   65 1    
    11    5   71 1    
    12    6    7 1    
    13    6   72 1    
    14    6   73 1    
    15    7    8 1    
    16    8    9 1    
    17    8   74 1    
    18    8   75 1    
    19    9   10 ar   
    20    9   14 ar   
    21   10   11 ar   
    22   10   76 1    
    23   11   12 ar   
    24   11   48 1    
    25   12   13 ar   
    26   12   77 1    
    27   13   14 ar   
    28   13   15 1    
    29   14   78 1    
    30   15   16 1    
    31   15   79 1    
    32   15   80 1    
    33   16   17 1    
    34   17   18 1    
    35   17   81 1    
    36   17   82 1    
    37   18   19 1    
    38   18   22 1    
    39   18   83 1    
    40   19   20 am   BACKBONE|DICT|INTERRES
    41   19   21 2    
    42   20   84 1    
    43   20   85 1    
    44   22   23 am   BACKBONE|DICT|INTERRES
    45   22   86 1    
    46   23   24 2    
    47   23   25 1    
    48   25   26 1    
    49   25   27 1    
    50   25   87 1    
    51   26   88 1    
    52   26   89 1    
    53   26   90 1    
    54   27   28 am   BACKBONE|DICT|INTERRES
    55   27   91 1    
    56   28   29 2    
    57   28   30 1    
    58   30   31 1    
    59   30   32 1    
    60   30   92 1    
    61   31   93 1    
    62   31   94 1    
    63   31   95 1    
    64   32   33 am   BACKBONE|DICT|INTERRES
    65   32   96 1    
    66   33   34 2    
    67   33   35 1    
    68   35   36 1    
    69   35   37 1    
    70   35   97 1    
    71   36   98 1    
    72   36   99 1    
    73   36  100 1    
    74   37   38 am   BACKBONE|DICT|INTERRES
    75   37  101 1    
    76   38   39 2    
    77   38   40 1    
    78   40   41 1    
    79   40   42 1    
    80   40  102 1    
    81   41  103 1    
    82   41  104 1    
    83   41  105 1    
    84   42   43 am   BACKBONE|DICT|INTERRES
    85   42  106 1    
    86   43   44 2    
    87   43   45 1    
    88   45   46 1    
    89   45   49 1    
    90   45  107 1    
    91   46   47 1    
    92   46  108 1    
    93   46  109 1    
    94   47   48 1    
    95   48  110 1    
    96   48  111 1    
    97   49   50 am   BACKBONE|DICT|INTERRES
    98   49  112 1    
    99   50   51 2    
   100   50   52 1    
   101   52   53 1    
   102   52   54 1    
   103   52  113 1    
   104   53  114 1    
   105   53  115 1    
   106   53  116 1    
   107   54   55 am   BACKBONE|DICT|INTERRES
   108   54  117 1    
   109   55   56 2    
   110   55   57 1    
   111   57   58 1    
   112   57   59 1    
   113   57  118 1    
   114   58  119 1    
   115   58  120 1    
   116   58  121 1    
   117   59   60 am   BACKBONE|DICT|INTERRES
   118   59  122 1    
   119   60   61 2    
   120   60   62 1    
   121   62   63 1    
   122   62   64 1    
   123   62  123 1    
   124   63  124 1    
   125   63  125 1    
   126   63  126 1    
   127   64   65 am   BACKBONE|DICT|INTERRES
   128   64  127 1    
   129   65   66 2    
@<TRIPOS>SUBSTRUCTURE
     1 UNK         1 GROUP             0       ****    0 ROOT    
