@<TRIPOS>MOLECULE
3R134
127   129    1
SMALL
USER_CHARGES


@<TRIPOS>ATOM
      1 CA         35.0209  -47.1944  -49.2212 C.3       0 UNK        -0.1968 
      2 C          34.4805  -47.1380  -50.6414 C.2       0 UNK         0.4852 
      3 O          34.4824  -48.1567  -51.3330 O.2       0 UNK        -0.5359 
      4 N          34.0009  -45.9633  -51.0763 N.am      1 UNK        -0.4300 
      5 CA         33.4650  -45.6916  -52.4182 C.3       1 UNK         0.0863 
      6 C6         33.0074  -44.2154  -52.5441 C.3       11 UNK        -0.0953 
      7 S7         32.7470  -43.6935  -54.2709 S.3       11 UNK        -0.2369 
      8 C8         30.9289  -43.6632  -54.3597 C.3       11 UNK         0.0226 
      9 C9         30.4688  -43.8244  -55.7976 C.ar      11 UNK        -0.0699 
     10 C10        30.1951  -45.0974  -56.3022 C.ar      11 UNK        -0.0804 
     11 C11        29.8592  -45.2728  -57.6484 C.ar      11 UNK        -0.0871 
     12 C12        29.7211  -44.1506  -58.4695 C.ar      11 UNK        -0.1008 
     13 C13        29.9313  -42.8647  -57.9590 C.ar      11 UNK        -0.0735 
     14 C14        30.3388  -42.7105  -56.6303 C.ar      11 UNK        -0.0945 
     15 C15        29.7133  -41.6460  -58.8448 C.3       11 UNK         0.0169 
     16 S16        27.9785  -41.5105  -59.3911 S.3       11 UNK        -0.2669 
     17 C17        27.1334  -40.7394  -57.9592 C.3       11 UNK        -0.0850 
     18 CA         27.0030  -41.6165  -56.6714 C.3       10 UNK         0.0855 
     19 C          26.1233  -40.9642  -55.5593 C.2       10 UNK         0.5543 
     20 N          26.1559  -39.6427  -55.4132 N.am      10 UNK        -0.7343 
     21 O          25.4476  -41.6426  -54.7844 O.2       10 UNK        -0.5027 
     22 N          26.6665  -43.0226  -56.9522 N.am      10 UNK        -0.4495 
     23 C          25.5204  -43.4725  -57.4772 C.2       10 UNK         0.4903 
     24 O          24.5655  -42.7525  -57.7746 O.2       10 UNK        -0.4860 
     25 CA         25.4270  -44.9827  -57.7621 C.3       9 UNK         0.0227 
     26 CB         25.7362  -45.2587  -59.2438 C.3       9 UNK        -0.1964 
     27 N          26.2964  -45.8262  -56.9348 N.am      9 UNK        -0.4231 
     28 C          26.1289  -46.0677  -55.6261 C.2       9 UNK         0.5014 
     29 O          25.2851  -45.5005  -54.9299 O.2       9 UNK        -0.5270 
     30 CA         27.0381  -47.1575  -55.0092 C.3       8 UNK         0.0284 
     31 CB         26.5458  -47.6333  -53.6268 C.3       8 UNK        -0.1977 
     32 N          27.2561  -48.3198  -55.8872 N.am      8 UNK        -0.4342 
     33 C          26.3186  -49.0743  -56.4914 C.2       8 UNK         0.5039 
     34 O          25.1055  -48.8933  -56.3791 O.2       8 UNK        -0.5547 
     35 CA         26.8076  -50.2175  -57.4019 C.3       7 UNK         0.0281 
     36 CB         26.8519  -49.7503  -58.8674 C.3       7 UNK        -0.1963 
     37 N          28.1205  -50.7452  -57.0267 N.am      7 UNK        -0.4444 
     38 C          28.3750  -51.4319  -55.9046 C.2       7 UNK         0.5104 
     39 O          27.5029  -51.7847  -55.1096 O.2       7 UNK        -0.5100 
     40 CA         29.8461  -51.7894  -55.6143 C.3       6 UNK         0.0396 
     41 CB         30.1021  -53.2771  -55.9052 C.3       6 UNK        -0.1801 
     42 N          30.8586  -50.9893  -56.3177 N.am      6 UNK        -0.4747 
     43 C          30.9925  -49.6547  -56.2836 C.2       6 UNK         0.5012 
     44 O          30.1849  -48.8941  -55.7449 O.2       6 UNK        -0.5003 
     45 CA         32.2931  -49.1089  -56.8964 C.3       5 UNK         0.0782 
     46 C46        32.2062  -47.6537  -57.4137 C.3       11 UNK        -0.0868 
     47 S47        31.1447  -47.4308  -58.8857 S.3       11 UNK        -0.2515 
     48 C48        29.6298  -46.6689  -58.2117 C.3       11 UNK         0.0199 
     49 N          33.2718  -49.2065  -55.8216 N.am      5 UNK        -0.4607 
     50 C          34.3042  -50.0520  -55.7815 C.2       4 UNK         0.5031 
     51 O          34.6360  -50.7788  -56.7184 O.2       4 UNK        -0.5119 
     52 CA         35.0737  -50.1211  -54.4526 C.3       4 UNK         0.0263 
     53 CB         36.0288  -48.9244  -54.3144 C.3       4 UNK        -0.1967 
     54 N          34.1874  -50.1719  -53.2859 N.am      4 UNK        -0.4237 
     55 C          33.3396  -51.1734  -53.0023 C.2       3 UNK         0.4908 
     56 O          33.2258  -52.1923  -53.6843 O.2       3 UNK        -0.5102 
     57 CA         32.4649  -51.0097  -51.7513 C.3       3 UNK         0.0241 
     58 CB         33.2712  -51.3004  -50.4740 C.3       3 UNK        -0.1971 
     59 N          31.9049  -49.6591  -51.6888 N.am      3 UNK        -0.4139 
     60 C          30.6661  -49.3322  -52.0842 C.2       2 UNK         0.5016 
     61 O          29.8206  -50.1595  -52.4221 O.2       2 UNK        -0.5319 
     62 CA         30.2774  -47.8400  -52.0900 C.3       2 UNK         0.0286 
     63 CB         29.2266  -47.5474  -51.0046 C.3       2 UNK        -0.1963 
     64 N          31.4020  -46.9177  -51.9107 N.am      2 UNK        -0.4790 
     65 C          32.3479  -46.6752  -52.8284 C.2       1 UNK         0.5024 
     66 O          32.3940  -47.2291  -53.9256 O.2       1 UNK        -0.4888 
     67 H67        34.9573  -46.2290  -48.7202 H         1 UNK         0.0892 
     68 H68        34.4574  -47.9200  -48.6354 H         1 UNK         0.0892 
     69 H69        36.0655  -47.5034  -49.2321 H         1 UNK         0.0892 
     70 H70        34.0259  -45.1703  -50.4514 H         1 UNK         0.3107 
     71 H71        34.2944  -45.8486  -53.1113 H         1 UNK         0.0773 
     72 H72        33.7766  -43.5575  -52.1367 H         1 UNK         0.0680 
     73 H73        32.1113  -44.0239  -51.9506 H         1 UNK         0.0680 
     74 H74        30.5082  -44.4625  -53.7478 H         1 UNK         0.0650 
     75 H75        30.5601  -42.7253  -53.9416 H         1 UNK         0.0650 
     76 H76        30.2840  -45.9557  -55.6495 H         1 UNK         0.1397 
     77 H77        29.4349  -44.2727  -59.5056 H         1 UNK         0.1363 
     78 H78        30.5395  -41.7231  -56.2371 H         1 UNK         0.1355 
     79 H79        30.0110  -40.7264  -58.3387 H         1 UNK         0.0707 
     80 H80        30.3521  -41.7342  -59.7248 H         1 UNK         0.0707 
     81 H81        26.1391  -40.4469  -58.3022 H         1 UNK         0.1034 
     82 H82        27.6542  -39.8080  -57.7320 H         1 UNK         0.1034 
     83 H83        27.9856  -41.6571  -56.2095 H         1 UNK         0.0482 
     84 H84        25.6029  -39.2228  -54.6820 H         1 UNK         0.3460 
     85 H85        26.7227  -39.0556  -56.0076 H         1 UNK         0.3460 
     86 H86        27.3921  -43.6927  -56.7457 H         1 UNK         0.2989 
     87 H87        24.3953  -45.2856  -57.5695 H         1 UNK         0.0559 
     88 H88        26.7595  -44.9808  -59.5010 H         1 UNK         0.0848 
     89 H89        25.0738  -44.6841  -59.8934 H         1 UNK         0.0848 
     90 H90        25.5962  -46.3111  -59.4929 H         1 UNK         0.0848 
     91 H91        27.0070  -46.3489  -57.4209 H         1 UNK         0.3144 
     92 H92        28.0158  -46.6944  -54.8674 H         1 UNK         0.0727 
     93 H93        25.5363  -48.0446  -53.6802 H         1 UNK         0.0790 
     94 H94        26.5283  -46.8108  -52.9097 H         1 UNK         0.0790 
     95 H95        27.1986  -48.4068  -53.2219 H         1 UNK         0.0790 
     96 H96        28.2281  -48.6019  -55.9908 H         1 UNK         0.3215 
     97 H97        26.0813  -51.0302  -57.3229 H         1 UNK         0.0863 
     98 H98        27.5881  -48.9603  -59.0212 H         1 UNK         0.0808 
     99 H99        25.8826  -49.3590  -59.1814 H         1 UNK         0.0808 
    100 H100       27.0977  -50.5735  -59.5390 H         1 UNK         0.0808 
    101 H101       28.9001  -50.5209  -57.6276 H         1 UNK         0.3118 
    102 H102       30.0049  -51.6292  -54.5473 H         1 UNK         0.0546 
    103 H103       31.0993  -53.5785  -55.5820 H         1 UNK         0.0828 
    104 H104       30.0071  -53.5032  -56.9683 H         1 UNK         0.0828 
    105 H105       29.3896  -53.9087  -55.3724 H         1 UNK         0.0828 
    106 H106       31.5946  -51.5208  -56.7616 H         1 UNK         0.3005 
    107 H107       32.5743  -49.7472  -57.7373 H         1 UNK         0.1257 
    108 H108       33.2048  -47.3289  -57.7097 H         1 UNK         0.0775 
    109 H109       31.9279  -46.9802  -56.6102 H         1 UNK         0.0775 
    110 H110       28.8878  -46.6240  -59.0104 H         1 UNK         0.0840 
    111 H111       29.2077  -47.3169  -57.4495 H         1 UNK         0.0840 
    112 H112       33.0538  -48.6448  -55.0009 H         1 UNK         0.2987 
    113 H113       35.6686  -51.0366  -54.4595 H         1 UNK         0.0785 
    114 H114       36.6355  -49.0046  -53.4122 H         1 UNK         0.0798 
    115 H115       36.7127  -48.8692  -55.1626 H         1 UNK         0.0798 
    116 H116       35.4870  -47.9789  -54.2669 H         1 UNK         0.0798 
    117 H117       34.2571  -49.3928  -52.6321 H         1 UNK         0.3079 
    118 H118       31.6614  -51.7473  -51.8099 H         1 UNK         0.0794 
    119 H119       32.6442  -51.2220  -49.5857 H         1 UNK         0.0786 
    120 H120       34.1101  -50.6149  -50.3515 H         1 UNK         0.0786 
    121 H121       33.6784  -52.3120  -50.4948 H         1 UNK         0.0786 
    122 H122       32.5490  -48.9157  -51.4465 H         1 UNK         0.3032 
    123 H123       29.8293  -47.6431  -53.0677 H         1 UNK         0.1094 
    124 H124       29.6351  -47.6814  -50.0018 H         1 UNK         0.0794 
    125 H125       28.8487  -46.5276  -51.0832 H         1 UNK         0.0794 
    126 H126       28.3685  -48.2148  -51.0940 H         1 UNK         0.0794 
    127 H127       31.4611  -46.4413  -51.0219 H         1 UNK         0.3016 
@<TRIPOS>BOND
     1    1    2 1    
     2    1   67 1    
     3    1   68 1    
     4    1   69 1    
     5    2    3 2    
     6    2    4 am   BACKBONE|DICT|INTERRES
     7    4    5 1    
     8    4   70 1    
     9    5    6 1    
    10    5   65 1    
    11    5   71 1    
    12    6    7 1    
    13    6   72 1    
    14    6   73 1    
    15    7    8 1    
    16    8    9 1    
    17    8   74 1    
    18    8   75 1    
    19    9   10 ar   
    20    9   14 ar   
    21   10   11 ar   
    22   10   76 1    
    23   11   12 ar   
    24   11   48 1    
    25   12   13 ar   
    26   12   77 1    
    27   13   14 ar   
    28   13   15 1    
    29   14   78 1    
    30   15   16 1    
    31   15   79 1    
    32   15   80 1    
    33   16   17 1    
    34   17   18 1    
    35   17   81 1    
    36   17   82 1    
    37   18   19 1    
    38   18   22 1    
    39   18   83 1    
    40   19   20 am   BACKBONE|DICT|INTERRES
    41   19   21 2    
    42   20   84 1    
    43   20   85 1    
    44   22   23 am   BACKBONE|DICT|INTERRES
    45   22   86 1    
    46   23   24 2    
    47   23   25 1    
    48   25   26 1    
    49   25   27 1    
    50   25   87 1    
    51   26   88 1    
    52   26   89 1    
    53   26   90 1    
    54   27   28 am   BACKBONE|DICT|INTERRES
    55   27   91 1    
    56   28   29 2    
    57   28   30 1    
    58   30   31 1    
    59   30   32 1    
    60   30   92 1    
    61   31   93 1    
    62   31   94 1    
    63   31   95 1    
    64   32   33 am   BACKBONE|DICT|INTERRES
    65   32   96 1    
    66   33   34 2    
    67   33   35 1    
    68   35   36 1    
    69   35   37 1    
    70   35   97 1    
    71   36   98 1    
    72   36   99 1    
    73   36  100 1    
    74   37   38 am   BACKBONE|DICT|INTERRES
    75   37  101 1    
    76   38   39 2    
    77   38   40 1    
    78   40   41 1    
    79   40   42 1    
    80   40  102 1    
    81   41  103 1    
    82   41  104 1    
    83   41  105 1    
    84   42   43 am   BACKBONE|DICT|INTERRES
    85   42  106 1    
    86   43   44 2    
    87   43   45 1    
    88   45   46 1    
    89   45   49 1    
    90   45  107 1    
    91   46   47 1    
    92   46  108 1    
    93   46  109 1    
    94   47   48 1    
    95   48  110 1    
    96   48  111 1    
    97   49   50 am   BACKBONE|DICT|INTERRES
    98   49  112 1    
    99   50   51 2    
   100   50   52 1    
   101   52   53 1    
   102   52   54 1    
   103   52  113 1    
   104   53  114 1    
   105   53  115 1    
   106   53  116 1    
   107   54   55 am   BACKBONE|DICT|INTERRES
   108   54  117 1    
   109   55   56 2    
   110   55   57 1    
   111   57   58 1    
   112   57   59 1    
   113   57  118 1    
   114   58  119 1    
   115   58  120 1    
   116   58  121 1    
   117   59   60 am   BACKBONE|DICT|INTERRES
   118   59  122 1    
   119   60   61 2    
   120   60   62 1    
   121   62   63 1    
   122   62   64 1    
   123   62  123 1    
   124   63  124 1    
   125   63  125 1    
   126   63  126 1    
   127   64   65 am   BACKBONE|DICT|INTERRES
   128   64  127 1    
   129   65   66 2    
@<TRIPOS>SUBSTRUCTURE
     1 UNK         1 GROUP             0       ****    0 ROOT    
