@<TRIPOS>MOLECULE
3R134
127   129    1
SMALL
USER_CHARGES


@<TRIPOS>ATOM
      1 CA         30.4871  -45.7109  -52.6953 C.3       0 UNK        -0.1968 
      2 C          31.6442  -45.1624  -51.8764 C.2       0 UNK         0.4852 
      3 O          31.6232  -45.2594  -50.6487 O.2       0 UNK        -0.5359 
      4 N          32.6464  -44.5761  -52.5437 N.am      1 UNK        -0.4300 
      5 CA         33.8085  -43.9400  -51.9081 C.3       1 UNK         0.0863 
      6 C6         34.4925  -42.9061  -52.8366 C.3       11 UNK        -0.0953 
      7 S7         33.3488  -41.6106  -53.4223 S.3       11 UNK        -0.2369 
      8 C8         33.4176  -41.8404  -55.2263 C.3       11 UNK         0.0226 
      9 C9         32.6612  -43.0807  -55.6804 C.ar      11 UNK        -0.0699 
     10 C10        33.3422  -44.2765  -55.9285 C.ar      11 UNK        -0.0804 
     11 C11        32.6531  -45.4052  -56.3808 C.ar      11 UNK        -0.0871 
     12 C12        31.2759  -45.3229  -56.6128 C.ar      11 UNK        -0.1008 
     13 C13        30.5804  -44.1382  -56.3513 C.ar      11 UNK        -0.0735 
     14 C14        31.2789  -43.0217  -55.8818 C.ar      11 UNK        -0.0945 
     15 C15        29.0791  -44.0605  -56.5901 C.3       11 UNK         0.0169 
     16 S16        28.1669  -45.1474  -55.4510 S.3       11 UNK        -0.2669 
     17 C17        26.4392  -44.6208  -55.7295 C.3       11 UNK        -0.0850 
     18 CA         25.4284  -45.8071  -55.6713 C.3       10 UNK         0.0855 
     19 C          25.0611  -46.2795  -54.2285 C.2       10 UNK         0.5543 
     20 N          25.9903  -46.2210  -53.2852 N.am      10 UNK        -0.7343 
     21 O          23.9539  -46.7451  -53.9625 O.2       10 UNK        -0.5027 
     22 N          24.2443  -45.5774  -56.5144 N.am      10 UNK        -0.4495 
     23 C          23.3257  -44.6134  -56.3453 C.2       10 UNK         0.4903 
     24 O          23.4281  -43.7164  -55.5067 O.2       10 UNK        -0.4860 
     25 CA         22.0646  -44.6715  -57.2379 C.3       9 UNK         0.0227 
     26 CB         21.4443  -43.2799  -57.4912 C.3       9 UNK        -0.1964 
     27 N          22.2596  -45.4112  -58.4925 N.am      9 UNK        -0.4231 
     28 C          23.0650  -45.0773  -59.5103 C.2       9 UNK         0.5014 
     29 O          23.6973  -44.0218  -59.5884 O.2       9 UNK        -0.5270 
     30 CA         23.2557  -46.1492  -60.5979 C.3       8 UNK         0.0284 
     31 CB         22.9192  -45.5980  -61.9940 C.3       8 UNK        -0.1977 
     32 N          24.6378  -46.6336  -60.5801 N.am      8 UNK        -0.4342 
     33 C          25.1992  -47.2703  -59.5445 C.2       8 UNK         0.5039 
     34 O          24.5711  -47.6541  -58.5505 O.2       8 UNK        -0.5547 
     35 CA         26.7197  -47.4540  -59.5951 C.3       7 UNK         0.0281 
     36 CB         27.4230  -46.0843  -59.4914 C.3       7 UNK        -0.1963 
     37 N          27.0974  -48.3108  -58.4749 N.am      7 UNK        -0.4444 
     38 C          28.2999  -48.8439  -58.2525 C.2       7 UNK         0.5104 
     39 O          29.2751  -48.6905  -58.9939 O.2       7 UNK        -0.5100 
     40 CA         28.4401  -49.7030  -56.9911 C.3       6 UNK         0.0396 
     41 CB         27.9835  -51.1507  -57.2489 C.3       6 UNK        -0.1801 
     42 N          29.8429  -49.6729  -56.5956 N.am      6 UNK        -0.4747 
     43 C          30.3325  -49.9580  -55.3861 C.2       6 UNK         0.5012 
     44 O          29.6471  -50.3547  -54.4400 O.2       6 UNK        -0.5003 
     45 CA         31.8396  -49.6953  -55.1942 C.3       5 UNK         0.0782 
     46 C46        32.0603  -48.2493  -54.6872 C.3       11 UNK        -0.0868 
     47 S47        33.7222  -47.6216  -55.0871 S.3       11 UNK        -0.2515 
     48 C48        33.4049  -46.7054  -56.6319 C.3       11 UNK         0.0199 
     49 N          32.4268  -50.6908  -54.2923 N.am      5 UNK        -0.4607 
     50 C          32.6110  -51.9795  -54.6121 C.2       4 UNK         0.5031 
     51 O          32.4198  -52.4225  -55.7462 O.2       4 UNK        -0.5119 
     52 CA         33.0372  -52.9507  -53.4894 C.3       4 UNK         0.0263 
     53 CB         33.9812  -54.0631  -53.9967 C.3       4 UNK        -0.1967 
     54 N          33.5772  -52.3018  -52.2862 N.am      4 UNK        -0.4237 
     55 C          34.7164  -51.6041  -52.1819 C.2       3 UNK         0.4908 
     56 O          35.5138  -51.4230  -53.1049 O.2       3 UNK        -0.5102 
     57 CA         35.0205  -51.0209  -50.7912 C.3       3 UNK         0.0241 
     58 CB         36.0134  -51.9180  -50.0341 C.3       3 UNK        -0.1971 
     59 N          35.5660  -49.6664  -50.8863 N.am      3 UNK        -0.4139 
     60 C          34.8862  -48.6091  -51.3479 C.2       2 UNK         0.5016 
     61 O          33.6934  -48.6459  -51.6650 O.2       2 UNK        -0.5319 
     62 CA         35.6784  -47.3008  -51.4730 C.3       2 UNK         0.0286 
     63 CB         36.7873  -47.4090  -52.5368 C.3       2 UNK        -0.1963 
     64 N          34.7738  -46.2141  -51.8386 N.am      2 UNK        -0.4790 
     65 C          34.8508  -44.9557  -51.3907 C.2       1 UNK         0.5024 
     66 O          35.7193  -44.5711  -50.6056 O.2       1 UNK        -0.4888 
     67 H67        30.6823  -45.6410  -53.7642 H         1 UNK         0.0892 
     68 H68        30.3074  -46.7564  -52.4473 H         1 UNK         0.0892 
     69 H69        29.5784  -45.1490  -52.4818 H         1 UNK         0.0892 
     70 H70        32.6030  -44.5000  -53.5514 H         1 UNK         0.3107 
     71 H71        33.4485  -43.3985  -51.0304 H         1 UNK         0.0773 
     72 H72        34.9628  -43.4027  -53.6859 H         1 UNK         0.0680 
     73 H73        35.3011  -42.3998  -52.3057 H         1 UNK         0.0680 
     74 H74        34.4583  -41.8806  -55.5519 H         1 UNK         0.0650 
     75 H75        32.9876  -40.9592  -55.7047 H         1 UNK         0.0650 
     76 H76        34.4114  -44.3320  -55.7759 H         1 UNK         0.1397 
     77 H77        30.7353  -46.1843  -56.9815 H         1 UNK         0.1363 
     78 H78        30.7507  -42.0986  -55.6849 H         1 UNK         0.1355 
     79 H79        28.8661  -44.3408  -57.6211 H         1 UNK         0.0707 
     80 H80        28.7240  -43.0362  -56.4661 H         1 UNK         0.0707 
     81 H81        26.1747  -43.8438  -55.0099 H         1 UNK         0.1034 
     82 H82        26.3856  -44.1424  -56.7086 H         1 UNK         0.1034 
     83 H83        25.9069  -46.6714  -56.1328 H         1 UNK         0.0482 
     84 H84        26.9097  -45.8681  -53.5074 H         1 UNK         0.3460 
     85 H85        25.7756  -46.5381  -52.3532 H         1 UNK         0.3460 
     86 H86        24.0829  -46.2888  -57.2214 H         1 UNK         0.2989 
     87 H87        21.3341  -45.2490  -56.6696 H         1 UNK         0.0559 
     88 H88        21.1398  -42.8113  -56.5546 H         1 UNK         0.0848 
     89 H89        20.5566  -43.3478  -58.1199 H         1 UNK         0.0848 
     90 H90        22.1484  -42.6024  -57.9751 H         1 UNK         0.0848 
     91 H91        21.8190  -46.3211  -58.5259 H         1 UNK         0.3144 
     92 H92        22.5942  -46.9947  -60.3962 H         1 UNK         0.0727 
     93 H93        23.5661  -44.7634  -62.2683 H         1 UNK         0.0790 
     94 H94        21.8903  -45.2375  -62.0313 H         1 UNK         0.0790 
     95 H95        23.0203  -46.3672  -62.7599 H         1 UNK         0.0790 
     96 H96        25.2295  -46.3266  -61.3388 H         1 UNK         0.3215 
     97 H97        26.9882  -47.9494  -60.5305 H         1 UNK         0.0863 
     98 H98        28.5083  -46.1798  -59.4742 H         1 UNK         0.0808 
     99 H99        27.1180  -45.5560  -58.5886 H         1 UNK         0.0808 
    100 H100       27.1766  -45.4445  -60.3394 H         1 UNK         0.0808 
    101 H101       26.3205  -48.5127  -57.8550 H         1 UNK         0.3118 
    102 H102       27.8358  -49.2592  -56.1967 H         1 UNK         0.0546 
    103 H103       28.5777  -51.6257  -58.0305 H         1 UNK         0.0828 
    104 H104       26.9404  -51.1825  -57.5660 H         1 UNK         0.0828 
    105 H105       28.0649  -51.7615  -56.3498 H         1 UNK         0.0828 
    106 H106       30.4516  -49.3244  -57.3277 H         1 UNK         0.3005 
    107 H107       32.3201  -49.8062  -56.1694 H         1 UNK         0.1257 
    108 H108       31.3244  -47.5637  -55.1057 H         1 UNK         0.0775 
    109 H109       31.9183  -48.1978  -53.6072 H         1 UNK         0.0775 
    110 H110       34.3602  -46.4848  -57.1106 H         1 UNK         0.0840 
    111 H111       32.8580  -47.3411  -57.3300 H         1 UNK         0.0840 
    112 H112       32.6107  -50.3859  -53.3470 H         1 UNK         0.2987 
    113 H113       32.1149  -53.4369  -53.1679 H         1 UNK         0.0785 
    114 H114       33.5029  -54.6582  -54.7756 H         1 UNK         0.0798 
    115 H115       34.2571  -54.7471  -53.1942 H         1 UNK         0.0798 
    116 H116       34.8988  -53.6551  -54.4213 H         1 UNK         0.0798 
    117 H117       32.9966  -52.3820  -51.4620 H         1 UNK         0.3079 
    118 H118       34.0935  -50.9669  -50.2159 H         1 UNK         0.0794 
    119 H119       36.2084  -51.5379  -49.0310 H         1 UNK         0.0786 
    120 H120       36.9680  -51.9945  -50.5568 H         1 UNK         0.0786 
    121 H121       35.6206  -52.9299  -49.9250 H         1 UNK         0.0786 
    122 H122       36.5476  -49.5611  -50.6757 H         1 UNK         0.3032 
    123 H123       36.1275  -47.0979  -50.4978 H         1 UNK         0.1094 
    124 H124       36.3798  -47.6608  -53.5167 H         1 UNK         0.0794 
    125 H125       37.3350  -46.4716  -52.6346 H         1 UNK         0.0794 
    126 H126       37.5148  -48.1793  -52.2793 H         1 UNK         0.0794 
    127 H127       33.9897  -46.4909  -52.4162 H         1 UNK         0.3016 
@<TRIPOS>BOND
     1    1    2 1    
     2    1   67 1    
     3    1   68 1    
     4    1   69 1    
     5    2    3 2    
     6    2    4 am   BACKBONE|DICT|INTERRES
     7    4    5 1    
     8    4   70 1    
     9    5    6 1    
    10    5   65 1    
    11    5   71 1    
    12    6    7 1    
    13    6   72 1    
    14    6   73 1    
    15    7    8 1    
    16    8    9 1    
    17    8   74 1    
    18    8   75 1    
    19    9   10 ar   
    20    9   14 ar   
    21   10   11 ar   
    22   10   76 1    
    23   11   12 ar   
    24   11   48 1    
    25   12   13 ar   
    26   12   77 1    
    27   13   14 ar   
    28   13   15 1    
    29   14   78 1    
    30   15   16 1    
    31   15   79 1    
    32   15   80 1    
    33   16   17 1    
    34   17   18 1    
    35   17   81 1    
    36   17   82 1    
    37   18   19 1    
    38   18   22 1    
    39   18   83 1    
    40   19   20 am   BACKBONE|DICT|INTERRES
    41   19   21 2    
    42   20   84 1    
    43   20   85 1    
    44   22   23 am   BACKBONE|DICT|INTERRES
    45   22   86 1    
    46   23   24 2    
    47   23   25 1    
    48   25   26 1    
    49   25   27 1    
    50   25   87 1    
    51   26   88 1    
    52   26   89 1    
    53   26   90 1    
    54   27   28 am   BACKBONE|DICT|INTERRES
    55   27   91 1    
    56   28   29 2    
    57   28   30 1    
    58   30   31 1    
    59   30   32 1    
    60   30   92 1    
    61   31   93 1    
    62   31   94 1    
    63   31   95 1    
    64   32   33 am   BACKBONE|DICT|INTERRES
    65   32   96 1    
    66   33   34 2    
    67   33   35 1    
    68   35   36 1    
    69   35   37 1    
    70   35   97 1    
    71   36   98 1    
    72   36   99 1    
    73   36  100 1    
    74   37   38 am   BACKBONE|DICT|INTERRES
    75   37  101 1    
    76   38   39 2    
    77   38   40 1    
    78   40   41 1    
    79   40   42 1    
    80   40  102 1    
    81   41  103 1    
    82   41  104 1    
    83   41  105 1    
    84   42   43 am   BACKBONE|DICT|INTERRES
    85   42  106 1    
    86   43   44 2    
    87   43   45 1    
    88   45   46 1    
    89   45   49 1    
    90   45  107 1    
    91   46   47 1    
    92   46  108 1    
    93   46  109 1    
    94   47   48 1    
    95   48  110 1    
    96   48  111 1    
    97   49   50 am   BACKBONE|DICT|INTERRES
    98   49  112 1    
    99   50   51 2    
   100   50   52 1    
   101   52   53 1    
   102   52   54 1    
   103   52  113 1    
   104   53  114 1    
   105   53  115 1    
   106   53  116 1    
   107   54   55 am   BACKBONE|DICT|INTERRES
   108   54  117 1    
   109   55   56 2    
   110   55   57 1    
   111   57   58 1    
   112   57   59 1    
   113   57  118 1    
   114   58  119 1    
   115   58  120 1    
   116   58  121 1    
   117   59   60 am   BACKBONE|DICT|INTERRES
   118   59  122 1    
   119   60   61 2    
   120   60   62 1    
   121   62   63 1    
   122   62   64 1    
   123   62  123 1    
   124   63  124 1    
   125   63  125 1    
   126   63  126 1    
   127   64   65 am   BACKBONE|DICT|INTERRES
   128   64  127 1    
   129   65   66 2    
@<TRIPOS>SUBSTRUCTURE
     1 UNK         1 GROUP             0       ****    0 ROOT    
