@<TRIPOS>MOLECULE
3R134
127   129    1
SMALL
USER_CHARGES


@<TRIPOS>ATOM
      1 CA         33.3102  -46.0892  -58.2445 C.3       0 UNK        -0.1968 
      2 C          33.4290  -46.2215  -56.7343 C.2       0 UNK         0.4852 
      3 O          33.4580  -47.3411  -56.2265 O.2       0 UNK        -0.5359 
      4 N          33.5212  -45.0877  -56.0243 N.am      1 UNK        -0.4300 
      5 CA         33.5436  -44.9488  -54.5575 C.3       1 UNK         0.0863 
      6 C6         33.7680  -43.4735  -54.1332 C.3       11 UNK        -0.0953 
      7 S7         32.6270  -42.2967  -54.9351 S.3       11 UNK        -0.2369 
      8 C8         31.5824  -41.7812  -53.5380 C.3       11 UNK         0.0226 
      9 C9         30.6547  -42.8978  -53.0865 C.ar      11 UNK        -0.0699 
     10 C10        30.8658  -43.5525  -51.8686 C.ar      11 UNK        -0.0804 
     11 C11        29.9946  -44.5625  -51.4472 C.ar      11 UNK        -0.0871 
     12 C12        28.9046  -44.9047  -52.2510 C.ar      11 UNK        -0.1008 
     13 C13        28.7240  -44.3067  -53.5003 C.ar      11 UNK        -0.0735 
     14 C14        29.5847  -43.2814  -53.8990 C.ar      11 UNK        -0.0945 
     15 C15        27.6311  -44.8022  -54.4362 C.3       11 UNK         0.0169 
     16 S16        28.0593  -46.4251  -55.1527 S.3       11 UNK        -0.2669 
     17 C17        29.5067  -46.0282  -56.1981 C.3       11 UNK        -0.0850 
     18 CA         29.2563  -46.1625  -57.7239 C.3       10 UNK         0.0855 
     19 C          29.2885  -47.6368  -58.2271 C.2       10 UNK         0.5543 
     20 N          28.3435  -48.0949  -59.0398 N.am      10 UNK        -0.7343 
     21 O          30.2094  -48.3783  -57.8986 O.2       10 UNK        -0.5027 
     22 N          28.0775  -45.3948  -58.1559 N.am      10 UNK        -0.4495 
     23 C          27.9685  -44.7569  -59.3274 C.2       10 UNK         0.4903 
     24 O          28.8892  -44.6611  -60.1409 O.2       10 UNK        -0.4860 
     25 CA         26.5931  -44.1295  -59.6431 C.3       9 UNK         0.0227 
     26 CB         26.4492  -43.7315  -61.1277 C.3       9 UNK        -0.1964 
     27 N          25.4522  -44.9599  -59.2285 N.am      9 UNK        -0.4231 
     28 C          25.2079  -46.2307  -59.5807 C.2       9 UNK         0.5014 
     29 O          25.9547  -46.9137  -60.2846 O.2       9 UNK        -0.5270 
     30 CA         23.9187  -46.8604  -59.0300 C.3       8 UNK         0.0284 
     31 CB         23.0378  -47.4069  -60.1665 C.3       8 UNK        -0.1977 
     32 N          24.2349  -47.9404  -58.0949 N.am      8 UNK        -0.4342 
     33 C          24.7723  -47.7490  -56.8848 C.2       8 UNK         0.5039 
     34 O          25.0013  -46.6320  -56.4118 O.2       8 UNK        -0.5547 
     35 CA         25.1024  -49.0092  -56.0734 C.3       7 UNK         0.0281 
     36 CB         26.3241  -49.7495  -56.6456 C.3       7 UNK        -0.1963 
     37 N          25.3880  -48.6199  -54.6969 N.am      7 UNK        -0.4444 
     38 C          25.0168  -49.2867  -53.6007 C.2       7 UNK         0.5104 
     39 O          24.4074  -50.3581  -53.6222 O.2       7 UNK        -0.5100 
     40 CA         25.3981  -48.6306  -52.2587 C.3       6 UNK         0.0396 
     41 CB         24.9959  -49.4795  -51.0332 C.3       6 UNK        -0.1801 
     42 N          26.8165  -48.2507  -52.1908 N.am      6 UNK        -0.4747 
     43 C          27.8781  -49.0697  -52.2666 C.2       6 UNK         0.5012 
     44 O          27.7971  -50.2937  -52.4085 O.2       6 UNK        -0.5003 
     45 CA         29.2637  -48.4116  -52.1149 C.3       5 UNK         0.0782 
     46 C46        29.5182  -48.0082  -50.6370 C.3       11 UNK        -0.0868 
     47 S47        30.9831  -46.9414  -50.4073 S.3       11 UNK        -0.2515 
     48 C48        30.2404  -45.2948  -50.1348 C.3       11 UNK         0.0199 
     49 N          30.2534  -49.3589  -52.6220 N.am      5 UNK        -0.4607 
     50 C          31.2271  -49.0732  -53.4895 C.2       4 UNK         0.5031 
     51 O          31.5217  -47.9355  -53.8549 O.2       4 UNK        -0.5119 
     52 CA         31.9550  -50.2854  -54.0789 C.3       4 UNK         0.0263 
     53 CB         31.0642  -51.0045  -55.1122 C.3       4 UNK        -0.1967 
     54 N          33.2050  -49.8726  -54.7128 N.am      4 UNK        -0.4237 
     55 C          34.2578  -50.6778  -54.9041 C.2       3 UNK         0.4908 
     56 O          34.2963  -51.8520  -54.5324 O.2       3 UNK        -0.5102 
     57 CA         35.4751  -50.0944  -55.6328 C.3       3 UNK         0.0241 
     58 CB         35.2644  -50.1383  -57.1561 C.3       3 UNK        -0.1971 
     59 N          35.7492  -48.7199  -55.2163 N.am      3 UNK        -0.4139 
     60 C          36.6355  -48.3741  -54.2724 C.2       2 UNK         0.5016 
     61 O          37.3093  -49.1876  -53.6383 O.2       2 UNK        -0.5319 
     62 CA         36.8409  -46.8729  -53.9983 C.3       2 UNK         0.0286 
     63 CB         38.1574  -46.3899  -54.6297 C.3       2 UNK        -0.1963 
     64 N          35.7466  -46.0373  -54.4960 N.am      2 UNK        -0.4790 
     65 C          34.5916  -45.8343  -53.8466 C.2       1 UNK         0.5024 
     66 O          34.3508  -46.2952  -52.7308 O.2       1 UNK        -0.4888 
     67 H67        34.2298  -46.4245  -58.7229 H         1 UNK         0.0892 
     68 H68        32.4925  -46.7099  -58.6099 H         1 UNK         0.0892 
     69 H69        33.1178  -45.0612  -58.5510 H         1 UNK         0.0892 
     70 H70        33.4991  -44.2055  -56.5165 H         1 UNK         0.3107 
     71 H71        32.5617  -45.2662  -54.1984 H         1 UNK         0.0773 
     72 H72        33.6844  -43.3738  -53.0493 H         1 UNK         0.0680 
     73 H73        34.7820  -43.1555  -54.3839 H         1 UNK         0.0680 
     74 H74        30.9839  -40.9229  -53.8461 H         1 UNK         0.0650 
     75 H75        32.2125  -41.4349  -52.7173 H         1 UNK         0.0650 
     76 H76        31.7087  -43.2768  -51.2498 H         1 UNK         0.1397 
     77 H77        28.2211  -45.6719  -51.9245 H         1 UNK         0.1363 
     78 H78        29.4430  -42.7984  -54.8562 H         1 UNK         0.1355 
     79 H79        27.4494  -44.0882  -55.2411 H         1 UNK         0.0707 
     80 H80        26.6926  -44.8921  -53.8874 H         1 UNK         0.0707 
     81 H81        29.8373  -45.0118  -55.9908 H         1 UNK         0.1034 
     82 H82        30.3408  -46.6587  -55.8839 H         1 UNK         0.1034 
     83 H83        30.1297  -45.7103  -58.1971 H         1 UNK         0.0482 
     84 H84        28.4036  -49.0466  -59.3623 H         1 UNK         0.3460 
     85 H85        27.5906  -47.5016  -59.3721 H         1 UNK         0.3460 
     86 H86        27.2670  -45.4681  -57.5557 H         1 UNK         0.2989 
     87 H87        26.5371  -43.2154  -59.0504 H         1 UNK         0.0559 
     88 H88        27.2212  -43.0188  -61.4207 H         1 UNK         0.0848 
     89 H89        25.4862  -43.2592  -61.3215 H         1 UNK         0.0848 
     90 H90        26.5373  -44.5959  -61.7870 H         1 UNK         0.0848 
     91 H91        24.7990  -44.5158  -58.5969 H         1 UNK         0.3144 
     92 H92        23.3453  -46.0987  -58.4968 H         1 UNK         0.0727 
     93 H93        22.1003  -47.8107  -59.7835 H         1 UNK         0.0790 
     94 H94        23.5403  -48.1969  -60.7264 H         1 UNK         0.0790 
     95 H95        22.7841  -46.6174  -60.8753 H         1 UNK         0.0790 
     96 H96        24.1059  -48.8837  -58.4321 H         1 UNK         0.3215 
     97 H97        24.2289  -49.6642  -56.1050 H         1 UNK         0.0863 
     98 H98        26.5198  -50.6695  -56.0945 H         1 UNK         0.0808 
     99 H99        27.2234  -49.1356  -56.5912 H         1 UNK         0.0808 
    100 H100       26.1752  -50.0230  -57.6906 H         1 UNK         0.0808 
    101 H101       25.8336  -47.7141  -54.6092 H         1 UNK         0.3118 
    102 H102       24.8309  -47.6999  -52.2066 H         1 UNK         0.0546 
    103 H103       25.4889  -50.4520  -51.0309 H         1 UNK         0.0828 
    104 H104       23.9209  -49.6629  -51.0228 H         1 UNK         0.0828 
    105 H105       25.2460  -48.9744  -50.1004 H         1 UNK         0.0828 
    106 H106       26.9827  -47.2610  -52.0860 H         1 UNK         0.3005 
    107 H107       29.2757  -47.5254  -52.7487 H         1 UNK         0.1257 
    108 H108       28.6519  -47.4972  -50.2140 H         1 UNK         0.0775 
    109 H109       29.6549  -48.9008  -50.0237 H         1 UNK         0.0775 
    110 H110       29.3125  -45.3787  -49.5677 H         1 UNK         0.0840 
    111 H111       30.9187  -44.7148  -49.5072 H         1 UNK         0.0840 
    112 H112       30.0209  -50.3264  -52.4399 H         1 UNK         0.2987 
    113 H113       32.1812  -50.9671  -53.2559 H         1 UNK         0.0785 
    114 H114       30.1187  -51.3226  -54.6710 H         1 UNK         0.0798 
    115 H115       31.5499  -51.8967  -55.5073 H         1 UNK         0.0798 
    116 H116       30.8274  -50.3522  -55.9542 H         1 UNK         0.0798 
    117 H117       33.2252  -48.9077  -55.0417 H         1 UNK         0.3079 
    118 H118       36.3352  -50.7269  -55.4018 H         1 UNK         0.0794 
    119 H119       36.1395  -49.7643  -57.6876 H         1 UNK         0.0786 
    120 H120       34.4045  -49.5433  -57.4663 H         1 UNK         0.0786 
    121 H121       35.0912  -51.1605  -57.4950 H         1 UNK         0.0786 
    122 H122       35.1574  -48.0026  -55.6264 H         1 UNK         0.3032 
    123 H123       36.9180  -46.7501  -52.9152 H         1 UNK         0.1094 
    124 H124       38.1466  -46.4911  -55.7157 H         1 UNK         0.0794 
    125 H125       38.3524  -45.3443  -54.3905 H         1 UNK         0.0794 
    126 H126       39.0044  -46.9682  -54.2574 H         1 UNK         0.0794 
    127 H127       35.8662  -45.6154  -55.4060 H         1 UNK         0.3016 
@<TRIPOS>BOND
     1    1    2 1    
     2    1   67 1    
     3    1   68 1    
     4    1   69 1    
     5    2    3 2    
     6    2    4 am   BACKBONE|DICT|INTERRES
     7    4    5 1    
     8    4   70 1    
     9    5    6 1    
    10    5   65 1    
    11    5   71 1    
    12    6    7 1    
    13    6   72 1    
    14    6   73 1    
    15    7    8 1    
    16    8    9 1    
    17    8   74 1    
    18    8   75 1    
    19    9   10 ar   
    20    9   14 ar   
    21   10   11 ar   
    22   10   76 1    
    23   11   12 ar   
    24   11   48 1    
    25   12   13 ar   
    26   12   77 1    
    27   13   14 ar   
    28   13   15 1    
    29   14   78 1    
    30   15   16 1    
    31   15   79 1    
    32   15   80 1    
    33   16   17 1    
    34   17   18 1    
    35   17   81 1    
    36   17   82 1    
    37   18   19 1    
    38   18   22 1    
    39   18   83 1    
    40   19   20 am   BACKBONE|DICT|INTERRES
    41   19   21 2    
    42   20   84 1    
    43   20   85 1    
    44   22   23 am   BACKBONE|DICT|INTERRES
    45   22   86 1    
    46   23   24 2    
    47   23   25 1    
    48   25   26 1    
    49   25   27 1    
    50   25   87 1    
    51   26   88 1    
    52   26   89 1    
    53   26   90 1    
    54   27   28 am   BACKBONE|DICT|INTERRES
    55   27   91 1    
    56   28   29 2    
    57   28   30 1    
    58   30   31 1    
    59   30   32 1    
    60   30   92 1    
    61   31   93 1    
    62   31   94 1    
    63   31   95 1    
    64   32   33 am   BACKBONE|DICT|INTERRES
    65   32   96 1    
    66   33   34 2    
    67   33   35 1    
    68   35   36 1    
    69   35   37 1    
    70   35   97 1    
    71   36   98 1    
    72   36   99 1    
    73   36  100 1    
    74   37   38 am   BACKBONE|DICT|INTERRES
    75   37  101 1    
    76   38   39 2    
    77   38   40 1    
    78   40   41 1    
    79   40   42 1    
    80   40  102 1    
    81   41  103 1    
    82   41  104 1    
    83   41  105 1    
    84   42   43 am   BACKBONE|DICT|INTERRES
    85   42  106 1    
    86   43   44 2    
    87   43   45 1    
    88   45   46 1    
    89   45   49 1    
    90   45  107 1    
    91   46   47 1    
    92   46  108 1    
    93   46  109 1    
    94   47   48 1    
    95   48  110 1    
    96   48  111 1    
    97   49   50 am   BACKBONE|DICT|INTERRES
    98   49  112 1    
    99   50   51 2    
   100   50   52 1    
   101   52   53 1    
   102   52   54 1    
   103   52  113 1    
   104   53  114 1    
   105   53  115 1    
   106   53  116 1    
   107   54   55 am   BACKBONE|DICT|INTERRES
   108   54  117 1    
   109   55   56 2    
   110   55   57 1    
   111   57   58 1    
   112   57   59 1    
   113   57  118 1    
   114   58  119 1    
   115   58  120 1    
   116   58  121 1    
   117   59   60 am   BACKBONE|DICT|INTERRES
   118   59  122 1    
   119   60   61 2    
   120   60   62 1    
   121   62   63 1    
   122   62   64 1    
   123   62  123 1    
   124   63  124 1    
   125   63  125 1    
   126   63  126 1    
   127   64   65 am   BACKBONE|DICT|INTERRES
   128   64  127 1    
   129   65   66 2    
@<TRIPOS>SUBSTRUCTURE
     1 UNK         1 GROUP             0       ****    0 ROOT    
