@<TRIPOS>MOLECULE
3R134
127   129    1
SMALL
USER_CHARGES


@<TRIPOS>ATOM
      1 CA         33.6048  -42.8654  -52.2872 C.3       0 UNK        -0.1968 
      2 C          34.4813  -43.9198  -52.9472 C.2       0 UNK         0.4852 
      3 O          35.6795  -43.9829  -52.6721 O.2       0 UNK        -0.5359 
      4 N          33.8880  -44.7539  -53.8100 N.am      1 UNK        -0.4300 
      5 CA         34.5565  -45.7817  -54.6224 C.3       1 UNK         0.0863 
      6 C6         33.7207  -46.1714  -55.8698 C.3       11 UNK        -0.0953 
      7 S7         33.0700  -44.7714  -56.8407 S.3       11 UNK        -0.2369 
      8 C8         31.2941  -45.1750  -56.8958 C.3       11 UNK         0.0226 
      9 C9         30.5200  -44.5060  -55.7685 C.ar      11 UNK        -0.0699 
     10 C10        30.6411  -44.9466  -54.4467 C.ar      11 UNK        -0.0804 
     11 C11        29.9208  -44.3235  -53.4221 C.ar      11 UNK        -0.0871 
     12 C12        29.0455  -43.2770  -53.7338 C.ar      11 UNK        -0.1008 
     13 C13        28.8994  -42.8440  -55.0546 C.ar      11 UNK        -0.0735 
     14 C14        29.6514  -43.4522  -56.0613 C.ar      11 UNK        -0.0945 
     15 C15        27.9156  -41.7387  -55.4069 C.3       11 UNK         0.0169 
     16 S16        26.2697  -42.4434  -55.7325 S.3       11 UNK        -0.2669 
     17 C17        25.6646  -41.4378  -57.1348 C.3       11 UNK        -0.0850 
     18 CA         25.9445  -42.0550  -58.5360 C.3       10 UNK         0.0855 
     19 C          27.3617  -41.6842  -59.0686 C.2       10 UNK         0.5543 
     20 N          28.2582  -42.6309  -59.3197 N.am      10 UNK        -0.7343 
     21 O          27.6458  -40.5065  -59.2721 O.2       10 UNK        -0.5027 
     22 N          25.6156  -43.4888  -58.5815 N.am      10 UNK        -0.4495 
     23 C          25.4532  -44.2144  -59.6948 C.2       10 UNK         0.4903 
     24 O          25.3843  -43.7200  -60.8213 O.2       10 UNK        -0.4860 
     25 CA         25.3596  -45.7478  -59.5256 C.3       9 UNK         0.0227 
     26 CB         25.8947  -46.5013  -60.7614 C.3       9 UNK        -0.1964 
     27 N          25.9934  -46.2747  -58.3067 N.am      9 UNK        -0.4231 
     28 C          27.2620  -46.1214  -57.9000 C.2       9 UNK         0.5014 
     29 O          28.1023  -45.4546  -58.5051 O.2       9 UNK        -0.5270 
     30 CA         27.6562  -46.8211  -56.5874 C.3       8 UNK         0.0284 
     31 CB         26.8905  -46.2472  -55.3802 C.3       8 UNK        -0.1977 
     32 N          27.5692  -48.2853  -56.6376 N.am      8 UNK        -0.4342 
     33 C          26.4920  -49.0656  -56.8162 C.2       8 UNK         0.5039 
     34 O          25.3433  -48.6417  -56.9545 O.2       8 UNK        -0.5547 
     35 CA         26.7440  -50.5805  -56.8274 C.3       7 UNK         0.0281 
     36 CB         27.5242  -51.0006  -58.0852 C.3       7 UNK        -0.1963 
     37 N          27.4885  -50.9731  -55.6310 N.am      7 UNK        -0.4444 
     38 C          26.9436  -51.5194  -54.5342 C.2       7 UNK         0.5104 
     39 O          25.7724  -51.8926  -54.4600 O.2       7 UNK        -0.5100 
     40 CA         27.8526  -51.6545  -53.2940 C.3       6 UNK         0.0396 
     41 CB         28.5090  -53.0431  -53.2583 C.3       6 UNK        -0.1801 
     42 N          28.8940  -50.6239  -53.2270 N.am      6 UNK        -0.4747 
     43 C          28.6536  -49.3045  -53.1324 C.2       6 UNK         0.5012 
     44 O          27.5298  -48.8479  -52.9262 O.2       6 UNK        -0.5003 
     45 CA         29.8389  -48.3337  -53.3665 C.3       5 UNK         0.0782 
     46 C46        30.2550  -47.5978  -52.0683 C.3       11 UNK        -0.0868 
     47 S47        29.1200  -46.2493  -51.5901 S.3       11 UNK        -0.2515 
     48 C48        30.0946  -44.7618  -51.9749 C.3       11 UNK         0.0199 
     49 N          30.9955  -48.9854  -54.0008 N.am      5 UNK        -0.4607 
     50 C          31.0012  -49.5102  -55.2373 C.2       4 UNK         0.5031 
     51 O          30.0526  -49.3975  -56.0145 O.2       4 UNK        -0.5119 
     52 CA         32.2080  -50.3676  -55.6668 C.3       4 UNK         0.0263 
     53 CB         32.9813  -49.7285  -56.8291 C.3       4 UNK        -0.1967 
     54 N          33.1318  -50.6935  -54.5763 N.am      4 UNK        -0.4237 
     55 C          32.8562  -51.5586  -53.5888 C.2       3 UNK         0.4908 
     56 O          31.8002  -52.1879  -53.5147 O.2       3 UNK        -0.5102 
     57 CA         33.9051  -51.7150  -52.4714 C.3       3 UNK         0.0241 
     58 CB         34.8575  -52.8784  -52.7904 C.3       3 UNK        -0.1971 
     59 N          34.6902  -50.5043  -52.1969 N.am      3 UNK        -0.4139 
     60 C          34.1800  -49.3167  -51.8400 C.2       2 UNK         0.5016 
     61 O          32.9719  -49.1042  -51.7367 O.2       2 UNK        -0.5319 
     62 CA         35.1567  -48.1531  -51.5824 C.3       2 UNK         0.0286 
     63 CB         36.6508  -48.5519  -51.6050 C.3       2 UNK        -0.1963 
     64 N          34.8987  -47.0344  -52.4991 N.am      2 UNK        -0.4790 
     65 C          34.9579  -47.0599  -53.8398 C.2       1 UNK         0.5024 
     66 O          35.2859  -48.0662  -54.4727 O.2       1 UNK        -0.4888 
     67 H67        33.5036  -43.0726  -51.2223 H         1 UNK         0.0892 
     68 H68        34.0548  -41.8796  -52.4013 H         1 UNK         0.0892 
     69 H69        32.6073  -42.8305  -52.7255 H         1 UNK         0.0892 
     70 H70        32.9119  -44.6119  -54.0241 H         1 UNK         0.3107 
     71 H71        35.4911  -45.3471  -54.9834 H         1 UNK         0.0773 
     72 H72        32.8970  -46.8241  -55.5781 H         1 UNK         0.0680 
     73 H73        34.3387  -46.7514  -56.5570 H         1 UNK         0.0680 
     74 H74        31.1386  -46.2544  -56.8698 H         1 UNK         0.0650 
     75 H75        30.9053  -44.8489  -57.8619 H         1 UNK         0.0650 
     76 H76        31.2914  -45.7767  -54.2153 H         1 UNK         0.1397 
     77 H77        28.4681  -42.8044  -52.9509 H         1 UNK         0.1363 
     78 H78        29.5426  -43.1185  -57.0822 H         1 UNK         0.1355 
     79 H79        27.8451  -41.0157  -54.5930 H         1 UNK         0.0707 
     80 H80        28.2748  -41.1883  -56.2773 H         1 UNK         0.0707 
     81 H81        26.0462  -40.4176  -57.0576 H         1 UNK         0.1034 
     82 H82        24.5851  -41.3427  -57.0083 H         1 UNK         0.1034 
     83 H83        25.2576  -41.5647  -59.2286 H         1 UNK         0.0482 
     84 H84        29.1592  -42.3687  -59.6845 H         1 UNK         0.3460 
     85 H85        28.0570  -43.6071  -59.1235 H         1 UNK         0.3460 
     86 H86        25.6746  -43.9709  -57.6964 H         1 UNK         0.2989 
     87 H87        24.2969  -45.9752  -59.4336 H         1 UNK         0.0559 
     88 H88        26.9460  -46.2764  -60.9446 H         1 UNK         0.0848 
     89 H89        25.3415  -46.2289  -61.6610 H         1 UNK         0.0848 
     90 H90        25.7990  -47.5803  -60.6405 H         1 UNK         0.0848 
     91 H91        25.4299  -46.9183  -57.7535 H         1 UNK         0.3144 
     92 H92        28.7121  -46.6058  -56.4264 H         1 UNK         0.0727 
     93 H93        27.0574  -45.1747  -55.2958 H         1 UNK         0.0790 
     94 H94        27.2295  -46.6891  -54.4450 H         1 UNK         0.0790 
     95 H95        25.8149  -46.4084  -55.4528 H         1 UNK         0.0790 
     96 H96        28.4720  -48.7512  -56.5505 H         1 UNK         0.3215 
     97 H97        25.7733  -51.0809  -56.8521 H         1 UNK         0.0863 
     98 H98        27.6408  -52.0834  -58.1311 H         1 UNK         0.0808 
     99 H99        28.5204  -50.5579  -58.1199 H         1 UNK         0.0808 
    100 H100       26.9982  -50.6935  -58.9902 H         1 UNK         0.0808 
    101 H101       28.4545  -50.6718  -55.5841 H         1 UNK         0.3118 
    102 H102       27.2227  -51.5505  -52.4082 H         1 UNK         0.0546 
    103 H103       27.7557  -53.8319  -53.2721 H         1 UNK         0.0828 
    104 H104       29.1034  -53.1788  -52.3545 H         1 UNK         0.0828 
    105 H105       29.1645  -53.2024  -54.1156 H         1 UNK         0.0828 
    106 H106       29.8483  -50.9365  -53.3605 H         1 UNK         0.3005 
    107 H107       29.4791  -47.5874  -54.0772 H         1 UNK         0.1257 
    108 H108       31.2522  -47.1730  -52.1857 H         1 UNK         0.0775 
    109 H109       30.3391  -48.2977  -51.2346 H         1 UNK         0.0775 
    110 H110       29.7724  -43.9624  -51.3056 H         1 UNK         0.0840 
    111 H111       31.1489  -44.9248  -51.7483 H         1 UNK         0.0840 
    112 H112       31.7945  -49.1402  -53.3931 H         1 UNK         0.2987 
    113 H113       31.7870  -51.3046  -56.0382 H         1 UNK         0.0785 
    114 H114       32.3084  -49.3554  -57.6028 H         1 UNK         0.0798 
    115 H115       33.6431  -50.4543  -57.3018 H         1 UNK         0.0798 
    116 H116       33.5965  -48.8977  -56.4950 H         1 UNK         0.0798 
    117 H117       34.0075  -50.1866  -54.5489 H         1 UNK         0.3079 
    118 H118       33.3616  -51.9606  -51.5566 H         1 UNK         0.0794 
    119 H119       35.4589  -52.6767  -53.6779 H         1 UNK         0.0786 
    120 H120       34.3015  -53.7987  -52.9757 H         1 UNK         0.0786 
    121 H121       35.5368  -53.0754  -51.9608 H         1 UNK         0.0786 
    122 H122       35.6931  -50.5836  -52.2835 H         1 UNK         0.3032 
    123 H123       34.9287  -47.7921  -50.5780 H         1 UNK         0.1094 
    124 H124       37.2826  -47.6977  -51.3608 H         1 UNK         0.0794 
    125 H125       36.8650  -49.3237  -50.8643 H         1 UNK         0.0794 
    126 H126       36.9711  -48.9248  -52.5783 H         1 UNK         0.0794 
    127 H127       34.6174  -46.1662  -52.0657 H         1 UNK         0.3016 
@<TRIPOS>BOND
     1    1    2 1    
     2    1   67 1    
     3    1   68 1    
     4    1   69 1    
     5    2    3 2    
     6    2    4 am   BACKBONE|DICT|INTERRES
     7    4    5 1    
     8    4   70 1    
     9    5    6 1    
    10    5   65 1    
    11    5   71 1    
    12    6    7 1    
    13    6   72 1    
    14    6   73 1    
    15    7    8 1    
    16    8    9 1    
    17    8   74 1    
    18    8   75 1    
    19    9   10 ar   
    20    9   14 ar   
    21   10   11 ar   
    22   10   76 1    
    23   11   12 ar   
    24   11   48 1    
    25   12   13 ar   
    26   12   77 1    
    27   13   14 ar   
    28   13   15 1    
    29   14   78 1    
    30   15   16 1    
    31   15   79 1    
    32   15   80 1    
    33   16   17 1    
    34   17   18 1    
    35   17   81 1    
    36   17   82 1    
    37   18   19 1    
    38   18   22 1    
    39   18   83 1    
    40   19   20 am   BACKBONE|DICT|INTERRES
    41   19   21 2    
    42   20   84 1    
    43   20   85 1    
    44   22   23 am   BACKBONE|DICT|INTERRES
    45   22   86 1    
    46   23   24 2    
    47   23   25 1    
    48   25   26 1    
    49   25   27 1    
    50   25   87 1    
    51   26   88 1    
    52   26   89 1    
    53   26   90 1    
    54   27   28 am   BACKBONE|DICT|INTERRES
    55   27   91 1    
    56   28   29 2    
    57   28   30 1    
    58   30   31 1    
    59   30   32 1    
    60   30   92 1    
    61   31   93 1    
    62   31   94 1    
    63   31   95 1    
    64   32   33 am   BACKBONE|DICT|INTERRES
    65   32   96 1    
    66   33   34 2    
    67   33   35 1    
    68   35   36 1    
    69   35   37 1    
    70   35   97 1    
    71   36   98 1    
    72   36   99 1    
    73   36  100 1    
    74   37   38 am   BACKBONE|DICT|INTERRES
    75   37  101 1    
    76   38   39 2    
    77   38   40 1    
    78   40   41 1    
    79   40   42 1    
    80   40  102 1    
    81   41  103 1    
    82   41  104 1    
    83   41  105 1    
    84   42   43 am   BACKBONE|DICT|INTERRES
    85   42  106 1    
    86   43   44 2    
    87   43   45 1    
    88   45   46 1    
    89   45   49 1    
    90   45  107 1    
    91   46   47 1    
    92   46  108 1    
    93   46  109 1    
    94   47   48 1    
    95   48  110 1    
    96   48  111 1    
    97   49   50 am   BACKBONE|DICT|INTERRES
    98   49  112 1    
    99   50   51 2    
   100   50   52 1    
   101   52   53 1    
   102   52   54 1    
   103   52  113 1    
   104   53  114 1    
   105   53  115 1    
   106   53  116 1    
   107   54   55 am   BACKBONE|DICT|INTERRES
   108   54  117 1    
   109   55   56 2    
   110   55   57 1    
   111   57   58 1    
   112   57   59 1    
   113   57  118 1    
   114   58  119 1    
   115   58  120 1    
   116   58  121 1    
   117   59   60 am   BACKBONE|DICT|INTERRES
   118   59  122 1    
   119   60   61 2    
   120   60   62 1    
   121   62   63 1    
   122   62   64 1    
   123   62  123 1    
   124   63  124 1    
   125   63  125 1    
   126   63  126 1    
   127   64   65 am   BACKBONE|DICT|INTERRES
   128   64  127 1    
   129   65   66 2    
@<TRIPOS>SUBSTRUCTURE
     1 UNK         1 GROUP             0       ****    0 ROOT    
