@<TRIPOS>MOLECULE
3R134
127   129    1
SMALL
USER_CHARGES


@<TRIPOS>ATOM
      1 CA         31.7325  -49.4901  -58.1908 C.3       0 UNK        -0.1968 
      2 C          32.2268  -48.9930  -56.8417 C.2       0 UNK         0.4852 
      3 O          32.2519  -49.7659  -55.8847 O.2       0 UNK        -0.5359 
      4 N          32.6444  -47.7201  -56.7677 N.am      1 UNK        -0.4300 
      5 CA         33.0907  -47.0072  -55.5581 C.3       1 UNK         0.0863 
      6 C6         33.5518  -45.5595  -55.8735 C.3       11 UNK        -0.0953 
      7 S7         32.3873  -44.6178  -56.9172 S.3       11 UNK        -0.2369 
      8 C8         32.3353  -43.0014  -56.0844 C.3       11 UNK         0.0226 
      9 C9         31.2787  -42.9511  -54.9905 C.ar      11 UNK        -0.0699 
     10 C10        31.6264  -43.1695  -53.6537 C.ar      11 UNK        -0.0804 
     11 C11        30.6625  -43.0659  -52.6459 C.ar      11 UNK        -0.0871 
     12 C12        29.3420  -42.7574  -52.9868 C.ar      11 UNK        -0.1008 
     13 C13        28.9776  -42.5412  -54.3191 C.ar      11 UNK        -0.0735 
     14 C14        29.9552  -42.6350  -55.3155 C.ar      11 UNK        -0.0945 
     15 C15        27.5402  -42.1503  -54.6516 C.3       11 UNK         0.0169 
     16 S16        26.8005  -43.1638  -55.9753 S.3       11 UNK        -0.2669 
     17 C17        26.8861  -42.0398  -57.4156 C.3       11 UNK        -0.0850 
     18 CA         25.7644  -42.3288  -58.4583 C.3       10 UNK         0.0855 
     19 C          25.6693  -41.2330  -59.5653 C.2       10 UNK         0.5543 
     20 N          25.2746  -41.5653  -60.7885 N.am      10 UNK        -0.7343 
     21 O          25.9226  -40.0584  -59.3079 O.2       10 UNK        -0.5027 
     22 N          25.7983  -43.7170  -58.9587 N.am      10 UNK        -0.4495 
     23 C          26.7934  -44.2686  -59.6631 C.2       10 UNK         0.4903 
     24 O          27.7966  -43.6631  -60.0453 O.2       10 UNK        -0.4860 
     25 CA         26.6732  -45.7698  -59.9515 C.3       9 UNK         0.0227 
     26 CB         26.9349  -46.0857  -61.4346 C.3       9 UNK        -0.1964 
     27 N          27.6603  -46.4561  -59.1236 N.am      9 UNK        -0.4231 
     28 C          27.4403  -46.8666  -57.8692 C.2       9 UNK         0.5014 
     29 O          26.3341  -46.8610  -57.3228 O.2       9 UNK        -0.5270 
     30 CA         28.6882  -47.2969  -57.0806 C.3       8 UNK         0.0284 
     31 CB         29.2194  -46.1078  -56.2668 C.3       8 UNK        -0.1977 
     32 N          28.4363  -48.4099  -56.1680 N.am      8 UNK        -0.4342 
     33 C          28.0244  -49.6364  -56.5142 C.2       8 UNK         0.5039 
     34 O          27.8491  -49.9990  -57.6786 O.2       8 UNK        -0.5547 
     35 CA         27.7836  -50.6407  -55.3742 C.3       7 UNK         0.0281 
     36 CB         28.9658  -51.6198  -55.2641 C.3       7 UNK        -0.1963 
     37 N          27.5800  -49.9776  -54.0818 N.am      7 UNK        -0.4444 
     38 C          26.3892  -49.5748  -53.6128 C.2       7 UNK         0.5104 
     39 O          25.3263  -49.7582  -54.2064 O.2       7 UNK        -0.5100 
     40 CA         26.3626  -48.8638  -52.2443 C.3       6 UNK         0.0396 
     41 CB         25.9686  -49.8561  -51.1383 C.3       6 UNK        -0.1801 
     42 N          27.6385  -48.2382  -51.8895 N.am      6 UNK        -0.4747 
     43 C          28.1012  -47.0900  -52.4080 C.2       6 UNK         0.5012 
     44 O          27.4465  -46.3785  -53.1668 O.2       6 UNK        -0.5003 
     45 CA         29.5543  -46.6948  -52.0571 C.3       5 UNK         0.0782 
     46 C46        29.5872  -45.6462  -50.9219 C.3       11 UNK        -0.0868 
     47 S47        31.2693  -44.9729  -50.7015 S.3       11 UNK        -0.2515 
     48 C48        31.0549  -43.2307  -51.1832 C.3       11 UNK         0.0199 
     49 N          30.3884  -47.8620  -51.7321 N.am      5 UNK        -0.4607 
     50 C          30.6865  -48.8406  -52.5914 C.2       4 UNK         0.5031 
     51 O          30.3148  -48.8447  -53.7642 O.2       4 UNK        -0.5119 
     52 CA         31.3937  -50.0657  -52.0105 C.3       4 UNK         0.0263 
     53 CB         30.3410  -51.0445  -51.4456 C.3       4 UNK        -0.1967 
     54 N          32.1979  -50.7067  -53.0488 N.am      4 UNK        -0.4237 
     55 C          33.0829  -51.6910  -52.8362 C.2       3 UNK         0.4908 
     56 O          33.3032  -52.1958  -51.7344 O.2       3 UNK        -0.5102 
     57 CA         33.8912  -52.1713  -54.0476 C.3       3 UNK         0.0241 
     58 CB         33.0079  -52.9305  -55.0537 C.3       3 UNK        -0.1971 
     59 N          34.5410  -51.0324  -54.6931 N.am      3 UNK        -0.4139 
     60 C          35.7232  -50.5266  -54.3113 C.2       2 UNK         0.5016 
     61 O          36.4444  -51.0433  -53.4566 O.2       2 UNK        -0.5319 
     62 CA         36.1955  -49.2264  -54.9875 C.3       2 UNK         0.0286 
     63 CB         37.1892  -49.5390  -56.1181 C.3       2 UNK        -0.1963 
     64 N          35.1024  -48.4134  -55.5239 N.am      2 UNK        -0.4790 
     65 C          34.2103  -47.7368  -54.7847 C.2       1 UNK         0.5024 
     66 O          34.2400  -47.6820  -53.5551 O.2       1 UNK        -0.4888 
     67 H67        32.3892  -50.2759  -58.5625 H         1 UNK         0.0892 
     68 H68        30.7302  -49.9054  -58.0905 H         1 UNK         0.0892 
     69 H69        31.6978  -48.6933  -58.9333 H         1 UNK         0.0892 
     70 H70        32.6027  -47.1418  -57.5950 H         1 UNK         0.3107 
     71 H71        32.2299  -46.9558  -54.8888 H         1 UNK         0.0773 
     72 H72        34.5109  -45.5661  -56.3955 H         1 UNK         0.0680 
     73 H73        33.7196  -45.0164  -54.9420 H         1 UNK         0.0680 
     74 H74        32.1158  -42.2376  -56.8318 H         1 UNK         0.0650 
     75 H75        33.3203  -42.7536  -55.6859 H         1 UNK         0.0650 
     76 H76        32.6505  -43.3981  -53.3924 H         1 UNK         0.1397 
     77 H77        28.5978  -42.6631  -52.2079 H         1 UNK         0.1363 
     78 H78        29.6893  -42.4543  -56.3471 H         1 UNK         0.1355 
     79 H79        26.9087  -42.2606  -53.7687 H         1 UNK         0.0707 
     80 H80        27.5106  -41.0912  -54.9084 H         1 UNK         0.0707 
     81 H81        26.8016  -41.0128  -57.0573 H         1 UNK         0.1034 
     82 H82        27.8723  -42.1178  -57.8747 H         1 UNK         0.1034 
     83 H83        24.8150  -42.2455  -57.9281 H         1 UNK         0.0482 
     84 H84        25.0536  -42.5229  -61.0093 H         1 UNK         0.3460 
     85 H85        25.2038  -40.8521  -61.4971 H         1 UNK         0.3460 
     86 H86        25.0254  -44.3011  -58.6728 H         1 UNK         0.2989 
     87 H87        25.6665  -46.1142  -59.7043 H         1 UNK         0.0559 
     88 H88        27.9312  -45.7739  -61.7514 H         1 UNK         0.0848 
     89 H89        26.2154  -45.5724  -62.0737 H         1 UNK         0.0848 
     90 H90        26.8405  -47.1533  -61.6337 H         1 UNK         0.0848 
     91 H91        28.6087  -46.4475  -59.4712 H         1 UNK         0.3144 
     92 H92        29.4595  -47.6155  -57.7833 H         1 UNK         0.0727 
     93 H93        29.4656  -45.2673  -56.9165 H         1 UNK         0.0790 
     94 H94        30.1188  -46.3689  -55.7119 H         1 UNK         0.0790 
     95 H95        28.4801  -45.7480  -55.5506 H         1 UNK         0.0790 
     96 H96        28.6004  -48.2315  -55.1873 H         1 UNK         0.3215 
     97 H97        26.8922  -51.2182  -55.6292 H         1 UNK         0.0863 
     98 H98        29.9020  -51.1049  -55.0481 H         1 UNK         0.0808 
     99 H99        29.1079  -52.1633  -56.1990 H         1 UNK         0.0808 
    100 H100       28.7995  -52.3601  -54.4818 H         1 UNK         0.0808 
    101 H101       28.4191  -49.7355  -53.5702 H         1 UNK         0.3118 
    102 H102       25.5964  -48.0868  -52.2912 H         1 UNK         0.0546 
    103 H103       26.6984  -50.6603  -51.0360 H         1 UNK         0.0828 
    104 H104       25.0043  -50.3181  -51.3548 H         1 UNK         0.0828 
    105 H105       25.8768  -49.3591  -50.1724 H         1 UNK         0.0828 
    106 H106       28.2321  -48.7447  -51.2493 H         1 UNK         0.3005 
    107 H107       29.9683  -46.2333  -52.9578 H         1 UNK         0.1257 
    108 H108       29.2645  -46.0891  -49.9779 H         1 UNK         0.0775 
    109 H109       28.8906  -44.8310  -51.1214 H         1 UNK         0.0775 
    110 H110       30.3149  -42.7664  -50.5293 H         1 UNK         0.0840 
    111 H111       31.9904  -42.7000  -50.9997 H         1 UNK         0.0840 
    112 H112       30.7277  -47.9141  -50.7822 H         1 UNK         0.2987 
    113 H113       32.0612  -49.7378  -51.2109 H         1 UNK         0.0785 
    114 H114       29.7039  -50.5587  -50.7059 H         1 UNK         0.0798 
    115 H115       30.8043  -51.8947  -50.9459 H         1 UNK         0.0798 
    116 H116       29.6933  -51.4358  -52.2306 H         1 UNK         0.0798 
    117 H117       32.0793  -50.3225  -53.9863 H         1 UNK         0.3079 
    118 H118       34.6542  -52.8671  -53.6914 H         1 UNK         0.0794 
    119 H119       32.5547  -53.8054  -54.5858 H         1 UNK         0.0786 
    120 H120       33.5923  -53.2838  -55.9032 H         1 UNK         0.0786 
    121 H121       32.1956  -52.3161  -55.4413 H         1 UNK         0.0786 
    122 H122       33.9673  -50.5043  -55.3443 H         1 UNK         0.3032 
    123 H123       36.7141  -48.6377  -54.2270 H         1 UNK         0.1094 
    124 H124       38.0338  -50.1204  -55.7452 H         1 UNK         0.0794 
    125 H125       36.7238  -50.1172  -56.9174 H         1 UNK         0.0794 
    126 H126       37.5952  -48.6261  -56.5544 H         1 UNK         0.0794 
    127 H127       34.9939  -48.3998  -56.5280 H         1 UNK         0.3016 
@<TRIPOS>BOND
     1    1    2 1    
     2    1   67 1    
     3    1   68 1    
     4    1   69 1    
     5    2    3 2    
     6    2    4 am   BACKBONE|DICT|INTERRES
     7    4    5 1    
     8    4   70 1    
     9    5    6 1    
    10    5   65 1    
    11    5   71 1    
    12    6    7 1    
    13    6   72 1    
    14    6   73 1    
    15    7    8 1    
    16    8    9 1    
    17    8   74 1    
    18    8   75 1    
    19    9   10 ar   
    20    9   14 ar   
    21   10   11 ar   
    22   10   76 1    
    23   11   12 ar   
    24   11   48 1    
    25   12   13 ar   
    26   12   77 1    
    27   13   14 ar   
    28   13   15 1    
    29   14   78 1    
    30   15   16 1    
    31   15   79 1    
    32   15   80 1    
    33   16   17 1    
    34   17   18 1    
    35   17   81 1    
    36   17   82 1    
    37   18   19 1    
    38   18   22 1    
    39   18   83 1    
    40   19   20 am   BACKBONE|DICT|INTERRES
    41   19   21 2    
    42   20   84 1    
    43   20   85 1    
    44   22   23 am   BACKBONE|DICT|INTERRES
    45   22   86 1    
    46   23   24 2    
    47   23   25 1    
    48   25   26 1    
    49   25   27 1    
    50   25   87 1    
    51   26   88 1    
    52   26   89 1    
    53   26   90 1    
    54   27   28 am   BACKBONE|DICT|INTERRES
    55   27   91 1    
    56   28   29 2    
    57   28   30 1    
    58   30   31 1    
    59   30   32 1    
    60   30   92 1    
    61   31   93 1    
    62   31   94 1    
    63   31   95 1    
    64   32   33 am   BACKBONE|DICT|INTERRES
    65   32   96 1    
    66   33   34 2    
    67   33   35 1    
    68   35   36 1    
    69   35   37 1    
    70   35   97 1    
    71   36   98 1    
    72   36   99 1    
    73   36  100 1    
    74   37   38 am   BACKBONE|DICT|INTERRES
    75   37  101 1    
    76   38   39 2    
    77   38   40 1    
    78   40   41 1    
    79   40   42 1    
    80   40  102 1    
    81   41  103 1    
    82   41  104 1    
    83   41  105 1    
    84   42   43 am   BACKBONE|DICT|INTERRES
    85   42  106 1    
    86   43   44 2    
    87   43   45 1    
    88   45   46 1    
    89   45   49 1    
    90   45  107 1    
    91   46   47 1    
    92   46  108 1    
    93   46  109 1    
    94   47   48 1    
    95   48  110 1    
    96   48  111 1    
    97   49   50 am   BACKBONE|DICT|INTERRES
    98   49  112 1    
    99   50   51 2    
   100   50   52 1    
   101   52   53 1    
   102   52   54 1    
   103   52  113 1    
   104   53  114 1    
   105   53  115 1    
   106   53  116 1    
   107   54   55 am   BACKBONE|DICT|INTERRES
   108   54  117 1    
   109   55   56 2    
   110   55   57 1    
   111   57   58 1    
   112   57   59 1    
   113   57  118 1    
   114   58  119 1    
   115   58  120 1    
   116   58  121 1    
   117   59   60 am   BACKBONE|DICT|INTERRES
   118   59  122 1    
   119   60   61 2    
   120   60   62 1    
   121   62   63 1    
   122   62   64 1    
   123   62  123 1    
   124   63  124 1    
   125   63  125 1    
   126   63  126 1    
   127   64   65 am   BACKBONE|DICT|INTERRES
   128   64  127 1    
   129   65   66 2    
@<TRIPOS>SUBSTRUCTURE
     1 UNK         1 GROUP             0       ****    0 ROOT    
