@<TRIPOS>MOLECULE
3R134
127   129    1
SMALL
USER_CHARGES


@<TRIPOS>ATOM
      1 CA         29.1471  -45.3688  -49.5499 C.3       0 UNK        -0.1968 
      2 C          29.5074  -45.7803  -50.9687 C.2       0 UNK         0.4852 
      3 O          28.6108  -45.9667  -51.7911 O.2       0 UNK        -0.5359 
      4 N          30.8077  -45.9410  -51.2525 N.am      1 UNK        -0.4300 
      5 CA         31.4293  -46.2588  -52.5512 C.3       1 UNK         0.0863 
      6 C6         31.1823  -45.1819  -53.6416 C.3       11 UNK        -0.0953 
      7 S7         32.0490  -43.6244  -53.2394 S.3       11 UNK        -0.2369 
      8 C8         31.4288  -42.4511  -54.4968 C.3       11 UNK         0.0226 
      9 C9         31.4347  -43.0013  -55.9200 C.ar      11 UNK        -0.0699 
     10 C10        32.5544  -43.6593  -56.4357 C.ar      11 UNK        -0.0804 
     11 C11        32.5176  -44.2368  -57.7082 C.ar      11 UNK        -0.0871 
     12 C12        31.3639  -44.1113  -58.4891 C.ar      11 UNK        -0.1008 
     13 C13        30.2505  -43.4167  -58.0050 C.ar      11 UNK        -0.0735 
     14 C14        30.2993  -42.8622  -56.7217 C.ar      11 UNK        -0.0945 
     15 C15        28.9778  -43.3348  -58.8421 C.3       11 UNK         0.0169 
     16 S16        28.2217  -41.6702  -58.8502 S.3       11 UNK        -0.2669 
     17 C17        26.4443  -42.0951  -58.7773 C.3       11 UNK        -0.0850 
     18 CA         25.8276  -41.9843  -57.3538 C.3       10 UNK         0.0855 
     19 C          24.3338  -42.4210  -57.3886 C.2       10 UNK         0.5543 
     20 N          23.9782  -43.5980  -56.8880 N.am      10 UNK        -0.7343 
     21 O          23.4896  -41.6783  -57.8835 O.2       10 UNK        -0.5027 
     22 N          26.6478  -42.6758  -56.3471 N.am      10 UNK        -0.4495 
     23 C          26.4941  -42.6119  -55.0194 C.2       10 UNK         0.4903 
     24 O          25.6380  -41.9340  -54.4485 O.2       10 UNK        -0.4860 
     25 CA         27.4931  -43.4504  -54.1980 C.3       9 UNK         0.0227 
     26 CB         27.8537  -42.7531  -52.8734 C.3       9 UNK        -0.1964 
     27 N          27.0939  -44.8342  -53.9154 N.am      9 UNK        -0.4231 
     28 C          26.4461  -45.7052  -54.7028 C.2       9 UNK         0.5014 
     29 O          25.9407  -45.4458  -55.7978 O.2       9 UNK        -0.5270 
     30 CA         26.3321  -47.1350  -54.1550 C.3       8 UNK         0.0284 
     31 CB         24.9961  -47.3327  -53.4217 C.3       8 UNK        -0.1977 
     32 N          26.4574  -48.1332  -55.2186 N.am      8 UNK        -0.4342 
     33 C          27.5808  -48.3569  -55.9105 C.2       8 UNK         0.5039 
     34 O          28.6469  -47.7651  -55.7191 O.2       8 UNK        -0.5547 
     35 CA         27.5201  -49.4416  -56.9868 C.3       7 UNK         0.0281 
     36 CB         27.2466  -48.8345  -58.3736 C.3       7 UNK        -0.1963 
     37 N          28.8115  -50.1158  -56.9811 N.am      7 UNK        -0.4444 
     38 C          29.0397  -51.3925  -57.3004 C.2       7 UNK         0.5104 
     39 O          28.1614  -52.1542  -57.7086 O.2       7 UNK        -0.5100 
     40 CA         30.4744  -51.9267  -57.1013 C.3       6 UNK         0.0396 
     41 CB         30.9003  -52.8886  -58.2310 C.3       6 UNK        -0.1801 
     42 N          31.4951  -50.8900  -56.8750 N.am      6 UNK        -0.4747 
     43 C          31.9217  -49.9586  -57.7446 C.2       6 UNK         0.5012 
     44 O          31.4590  -49.8277  -58.8782 O.2       6 UNK        -0.5003 
     45 CA         33.0580  -49.0195  -57.2920 C.3       5 UNK         0.0782 
     46 C46        32.6657  -47.5270  -57.4368 C.3       11 UNK        -0.0868 
     47 S47        34.1092  -46.4418  -57.1621 S.3       11 UNK        -0.2515 
     48 C48        33.7207  -45.0128  -58.2241 C.3       11 UNK         0.0199 
     49 N          33.5172  -49.3135  -55.9288 N.am      5 UNK        -0.4607 
     50 C          34.6140  -50.0206  -55.6344 C.2       4 UNK         0.5031 
     51 O          35.2726  -50.6444  -56.4667 O.2       4 UNK        -0.5119 
     52 CA         35.0683  -50.0110  -54.1698 C.3       4 UNK         0.0263 
     53 CB         35.6596  -48.6381  -53.8032 C.3       4 UNK        -0.1967 
     54 N          33.9657  -50.3180  -53.2576 N.am      4 UNK        -0.4237 
     55 C          33.8585  -51.4504  -52.5476 C.2       3 UNK         0.4908 
     56 O          34.6584  -52.3841  -52.6237 O.2       3 UNK        -0.5102 
     57 CA         32.6829  -51.5688  -51.5577 C.3       3 UNK         0.0241 
     58 CB         33.1698  -51.3249  -50.1194 C.3       3 UNK        -0.1971 
     59 N          31.5704  -50.6601  -51.8415 N.am      3 UNK        -0.4139 
     60 C          30.7258  -50.7942  -52.8714 C.2       2 UNK         0.5016 
     61 O          30.7772  -51.7160  -53.6846 O.2       2 UNK        -0.5319 
     62 CA         29.6640  -49.6965  -53.0455 C.3       2 UNK         0.0286 
     63 CB         28.3742  -50.0830  -52.3040 C.3       2 UNK        -0.1963 
     64 N          30.0857  -48.3511  -52.6291 N.am      2 UNK        -0.4790 
     65 C          31.1567  -47.6845  -53.0846 C.2       1 UNK         0.5024 
     66 O          31.9701  -48.1811  -53.8665 O.2       1 UNK        -0.4888 
     67 H67        28.5078  -46.1230  -49.0922 H         1 UNK         0.0892 
     68 H68        30.0297  -45.2441  -48.9229 H         1 UNK         0.0892 
     69 H69        28.6041  -44.4242  -49.5633 H         1 UNK         0.0892 
     70 H70        31.4739  -45.7932  -50.5071 H         1 UNK         0.3107 
     71 H71        32.5013  -46.2613  -52.3461 H         1 UNK         0.0773 
     72 H72        31.5558  -45.5258  -54.6080 H         1 UNK         0.0680 
     73 H73        30.1181  -44.9908  -53.7790 H         1 UNK         0.0680 
     74 H74        32.0427  -41.5503  -54.4665 H         1 UNK         0.0650 
     75 H75        30.4231  -42.1453  -54.2079 H         1 UNK         0.0650 
     76 H76        33.4416  -43.7659  -55.8264 H         1 UNK         0.1397 
     77 H77        31.3280  -44.5654  -59.4701 H         1 UNK         0.1363 
     78 H78        29.4443  -42.3237  -56.3419 H         1 UNK         0.1355 
     79 H79        29.1745  -43.6251  -59.8753 H         1 UNK         0.0707 
     80 H80        28.2762  -44.0699  -58.4462 H         1 UNK         0.0707 
     81 H81        26.2937  -43.0960  -59.1869 H         1 UNK         0.1034 
     82 H82        25.9193  -41.4219  -59.4580 H         1 UNK         0.1034 
     83 H83        25.8314  -40.9285  -57.0766 H         1 UNK         0.0482 
     84 H84        23.0111  -43.8780  -56.9117 H         1 UNK         0.3460 
     85 H85        24.6806  -44.2195  -56.4932 H         1 UNK         0.3460 
     86 H86        27.3363  -43.3135  -56.7153 H         1 UNK         0.2989 
     87 H87        28.4109  -43.5278  -54.7772 H         1 UNK         0.0559 
     88 H88        28.7129  -43.2233  -52.3962 H         1 UNK         0.0848 
     89 H89        28.1142  -41.7064  -53.0367 H         1 UNK         0.0848 
     90 H90        27.0223  -42.7757  -52.1678 H         1 UNK         0.0848 
     91 H91        27.4899  -45.2175  -53.0576 H         1 UNK         0.3144 
     92 H92        27.1457  -47.3029  -53.4487 H         1 UNK         0.0727 
     93 H93        24.9214  -48.3323  -52.9931 H         1 UNK         0.0790 
     94 H94        24.1447  -47.1853  -54.0876 H         1 UNK         0.0790 
     95 H95        24.8946  -46.6215  -52.6007 H         1 UNK         0.0790 
     96 H96        25.6163  -48.6306  -55.4721 H         1 UNK         0.3215 
     97 H97        26.7329  -50.1552  -56.7331 H         1 UNK         0.0863 
     98 H98        28.0205  -48.1199  -58.6577 H         1 UNK         0.0808 
     99 H99        26.2923  -48.3066  -58.3880 H         1 UNK         0.0808 
    100 H100       27.2046  -49.6056  -59.1429 H         1 UNK         0.0808 
    101 H101       29.5708  -49.5491  -56.6242 H         1 UNK         0.3118 
    102 H102       30.4417  -52.5128  -56.1828 H         1 UNK         0.0546 
    103 H103       31.9076  -53.2718  -58.0682 H         1 UNK         0.0828 
    104 H104       30.8774  -52.4053  -59.2080 H         1 UNK         0.0828 
    105 H105       30.2338  -53.7503  -58.2832 H         1 UNK         0.0828 
    106 H106       31.9288  -50.9047  -55.9611 H         1 UNK         0.3005 
    107 H107       33.8742  -49.2059  -57.9942 H         1 UNK         0.1257 
    108 H108       31.8792  -47.2570  -56.7287 H         1 UNK         0.0775 
    109 H109       32.2670  -47.3255  -58.4329 H         1 UNK         0.0775 
    110 H110       33.5637  -45.3542  -59.2485 H         1 UNK         0.0840 
    111 H111       34.5853  -44.3482  -58.2514 H         1 UNK         0.0840 
    112 H112       33.0191  -48.8301  -55.1844 H         1 UNK         0.2987 
    113 H113       35.8656  -50.7507  -54.0703 H         1 UNK         0.0785 
    114 H114       36.4787  -48.3742  -54.4736 H         1 UNK         0.0798 
    115 H115       34.9164  -47.8420  -53.8690 H         1 UNK         0.0798 
    116 H116       36.0589  -48.6390  -52.7889 H         1 UNK         0.0798 
    117 H117       33.2342  -49.6206  -53.1813 H         1 UNK         0.3079 
    118 H118       32.3086  -52.5930  -51.6217 H         1 UNK         0.0794 
    119 H119       32.3691  -51.4829  -49.3965 H         1 UNK         0.0786 
    120 H120       33.5484  -50.3105  -49.9872 H         1 UNK         0.0786 
    121 H121       33.9776  -52.0103  -49.8586 H         1 UNK         0.0786 
    122 H122       31.4490  -49.8703  -51.2241 H         1 UNK         0.3032 
    123 H123       29.4479  -49.6522  -54.1121 H         1 UNK         0.1094 
    124 H124       28.5199  -50.1000  -51.2233 H         1 UNK         0.0794 
    125 H125       27.5626  -49.3904  -52.5211 H         1 UNK         0.0794 
    126 H126       28.0341  -51.0756  -52.6033 H         1 UNK         0.0794 
    127 H127       29.4435  -47.8263  -52.0462 H         1 UNK         0.3016 
@<TRIPOS>BOND
     1    1    2 1    
     2    1   67 1    
     3    1   68 1    
     4    1   69 1    
     5    2    3 2    
     6    2    4 am   BACKBONE|DICT|INTERRES
     7    4    5 1    
     8    4   70 1    
     9    5    6 1    
    10    5   65 1    
    11    5   71 1    
    12    6    7 1    
    13    6   72 1    
    14    6   73 1    
    15    7    8 1    
    16    8    9 1    
    17    8   74 1    
    18    8   75 1    
    19    9   10 ar   
    20    9   14 ar   
    21   10   11 ar   
    22   10   76 1    
    23   11   12 ar   
    24   11   48 1    
    25   12   13 ar   
    26   12   77 1    
    27   13   14 ar   
    28   13   15 1    
    29   14   78 1    
    30   15   16 1    
    31   15   79 1    
    32   15   80 1    
    33   16   17 1    
    34   17   18 1    
    35   17   81 1    
    36   17   82 1    
    37   18   19 1    
    38   18   22 1    
    39   18   83 1    
    40   19   20 am   BACKBONE|DICT|INTERRES
    41   19   21 2    
    42   20   84 1    
    43   20   85 1    
    44   22   23 am   BACKBONE|DICT|INTERRES
    45   22   86 1    
    46   23   24 2    
    47   23   25 1    
    48   25   26 1    
    49   25   27 1    
    50   25   87 1    
    51   26   88 1    
    52   26   89 1    
    53   26   90 1    
    54   27   28 am   BACKBONE|DICT|INTERRES
    55   27   91 1    
    56   28   29 2    
    57   28   30 1    
    58   30   31 1    
    59   30   32 1    
    60   30   92 1    
    61   31   93 1    
    62   31   94 1    
    63   31   95 1    
    64   32   33 am   BACKBONE|DICT|INTERRES
    65   32   96 1    
    66   33   34 2    
    67   33   35 1    
    68   35   36 1    
    69   35   37 1    
    70   35   97 1    
    71   36   98 1    
    72   36   99 1    
    73   36  100 1    
    74   37   38 am   BACKBONE|DICT|INTERRES
    75   37  101 1    
    76   38   39 2    
    77   38   40 1    
    78   40   41 1    
    79   40   42 1    
    80   40  102 1    
    81   41  103 1    
    82   41  104 1    
    83   41  105 1    
    84   42   43 am   BACKBONE|DICT|INTERRES
    85   42  106 1    
    86   43   44 2    
    87   43   45 1    
    88   45   46 1    
    89   45   49 1    
    90   45  107 1    
    91   46   47 1    
    92   46  108 1    
    93   46  109 1    
    94   47   48 1    
    95   48  110 1    
    96   48  111 1    
    97   49   50 am   BACKBONE|DICT|INTERRES
    98   49  112 1    
    99   50   51 2    
   100   50   52 1    
   101   52   53 1    
   102   52   54 1    
   103   52  113 1    
   104   53  114 1    
   105   53  115 1    
   106   53  116 1    
   107   54   55 am   BACKBONE|DICT|INTERRES
   108   54  117 1    
   109   55   56 2    
   110   55   57 1    
   111   57   58 1    
   112   57   59 1    
   113   57  118 1    
   114   58  119 1    
   115   58  120 1    
   116   58  121 1    
   117   59   60 am   BACKBONE|DICT|INTERRES
   118   59  122 1    
   119   60   61 2    
   120   60   62 1    
   121   62   63 1    
   122   62   64 1    
   123   62  123 1    
   124   63  124 1    
   125   63  125 1    
   126   63  126 1    
   127   64   65 am   BACKBONE|DICT|INTERRES
   128   64  127 1    
   129   65   66 2    
@<TRIPOS>SUBSTRUCTURE
     1 UNK         1 GROUP             0       ****    0 ROOT    
