@<TRIPOS>MOLECULE
3R134
127   129    1
SMALL
USER_CHARGES


@<TRIPOS>ATOM
      1 CA         27.9479  -45.2797  -52.8744 C.3       0 UNK        -0.1968 
      2 C          28.8915  -45.2721  -51.6794 C.2       0 UNK         0.4852 
      3 O          28.4321  -45.1703  -50.5408 O.2       0 UNK        -0.5359 
      4 N          30.2014  -45.3689  -51.9357 N.am      1 UNK        -0.4300 
      5 CA         31.2665  -45.4322  -50.9307 C.3       1 UNK         0.0863 
      6 C6         32.4547  -44.5075  -51.3162 C.3       11 UNK        -0.0953 
      7 S7         33.2551  -44.9624  -52.8941 S.3       11 UNK        -0.2369 
      8 C8         32.6356  -43.6803  -54.0282 C.3       11 UNK         0.0226 
      9 C9         32.2050  -44.2907  -55.3521 C.ar      11 UNK        -0.0699 
     10 C10        33.1652  -44.7316  -56.2663 C.ar      11 UNK        -0.0804 
     11 C11        32.7789  -45.3044  -57.4814 C.ar      11 UNK        -0.0871 
     12 C12        31.4201  -45.4217  -57.7865 C.ar      11 UNK        -0.1008 
     13 C13        30.4503  -44.9834  -56.8800 C.ar      11 UNK        -0.0735 
     14 C14        30.8488  -44.4195  -55.6639 C.ar      11 UNK        -0.0945 
     15 C15        28.9741  -45.1728  -57.1922 C.3       11 UNK         0.0169 
     16 S16        28.2901  -43.8455  -58.2270 S.3       11 UNK        -0.2669 
     17 C17        28.0008  -42.5102  -57.0110 C.3       11 UNK        -0.0850 
     18 CA         26.5062  -42.2684  -56.6638 C.3       10 UNK         0.0855 
     19 C          25.6830  -41.7644  -57.8882 C.2       10 UNK         0.5543 
     20 N          24.6429  -42.4644  -58.3254 N.am      10 UNK        -0.7343 
     21 O          25.9878  -40.7096  -58.4399 O.2       10 UNK        -0.5027 
     22 N          25.9163  -43.3982  -55.9211 N.am      10 UNK        -0.4495 
     23 C          24.8261  -43.3135  -55.1465 C.2       10 UNK         0.4903 
     24 O          24.2085  -42.2638  -54.9597 O.2       10 UNK        -0.4860 
     25 CA         24.3406  -44.6163  -54.4755 C.3       9 UNK         0.0227 
     26 CB         23.0507  -44.4167  -53.6567 C.3       9 UNK        -0.1964 
     27 N          24.1254  -45.6992  -55.4406 N.am      9 UNK        -0.4231 
     28 C          25.0904  -46.4702  -55.9528 C.2       9 UNK         0.5014 
     29 O          26.2860  -46.3328  -55.6820 O.2       9 UNK        -0.5270 
     30 CA         24.6593  -47.5455  -56.9556 C.3       8 UNK         0.0284 
     31 CB         24.2834  -46.9208  -58.3112 C.3       8 UNK        -0.1977 
     32 N          25.7839  -48.4544  -57.1379 N.am      8 UNK        -0.4342 
     33 C          25.7258  -49.7757  -57.3262 C.2       8 UNK         0.5039 
     34 O          24.6716  -50.4035  -57.4378 O.2       8 UNK        -0.5547 
     35 CA         27.0660  -50.5315  -57.4161 C.3       7 UNK         0.0281 
     36 CB         27.3077  -51.0329  -58.8498 C.3       7 UNK        -0.1963 
     37 N          28.2166  -49.7218  -57.0038 N.am      7 UNK        -0.4444 
     38 C          28.5911  -49.4795  -55.7426 C.2       7 UNK         0.5104 
     39 O          28.0157  -49.9553  -54.7627 O.2       7 UNK        -0.5100 
     40 CA         29.8078  -48.5457  -55.5606 C.3       6 UNK         0.0396 
     41 CB         30.1359  -48.2891  -54.0816 C.3       6 UNK        -0.1801 
     42 N          31.0135  -49.0213  -56.2519 N.am      6 UNK        -0.4747 
     43 C          31.2129  -48.9885  -57.5808 C.2       6 UNK         0.5012 
     44 O          30.3764  -48.5387  -58.3669 O.2       6 UNK        -0.5003 
     45 CA         32.5187  -49.5789  -58.1584 C.3       5 UNK         0.0782 
     46 C46        33.3266  -48.5471  -58.9920 C.3       11 UNK        -0.0868 
     47 S47        34.4277  -47.4569  -58.0193 S.3       11 UNK        -0.2515 
     48 C48        33.8377  -45.7911  -58.4563 C.3       11 UNK         0.0199 
     49 N          33.3529  -50.2518  -57.1606 N.am      5 UNK        -0.4607 
     50 C          33.1451  -51.4773  -56.6652 C.2       4 UNK         0.5031 
     51 O          32.2393  -52.2209  -57.0412 O.2       4 UNK        -0.5119 
     52 CA         34.1013  -51.9495  -55.5520 C.3       4 UNK         0.0263 
     53 CB         35.1946  -52.8586  -56.1365 C.3       4 UNK        -0.1967 
     54 N          34.7328  -50.8591  -54.7947 N.am      4 UNK        -0.4237 
     55 C          34.0680  -49.9676  -54.0469 C.2       3 UNK         0.4908 
     56 O          32.8410  -49.9472  -53.9468 O.2       3 UNK        -0.5102 
     57 CA         34.9123  -48.8836  -53.3562 C.3       3 UNK         0.0241 
     58 CB         35.1394  -47.7044  -54.3166 C.3       3 UNK        -0.1971 
     59 N          34.2866  -48.3868  -52.1266 N.am      3 UNK        -0.4139 
     60 C          34.1241  -49.1051  -51.0053 C.2       2 UNK         0.5016 
     61 O          34.5214  -50.2652  -50.8800 O.2       2 UNK        -0.5319 
     62 CA         33.4436  -48.4230  -49.8003 C.3       2 UNK         0.0286 
     63 CB         34.4389  -48.2661  -48.6373 C.3       2 UNK        -0.1963 
     64 N          32.8725  -47.1065  -50.1047 N.am      2 UNK        -0.4790 
     65 C          31.6717  -46.9028  -50.6636 C.2       1 UNK         0.5024 
     66 O          30.9050  -47.8226  -50.9553 O.2       1 UNK        -0.4888 
     67 H67        28.4652  -45.5038  -53.8060 H         1 UNK         0.0892 
     68 H68        27.1732  -46.0338  -52.7373 H         1 UNK         0.0892 
     69 H69        27.4656  -44.3084  -52.9786 H         1 UNK         0.0892 
     70 H70        30.5179  -45.4906  -52.8860 H         1 UNK         0.3107 
     71 H71        30.8799  -45.0627  -49.9787 H         1 UNK         0.0773 
     72 H72        32.1076  -43.4747  -51.3666 H         1 UNK         0.0680 
     73 H73        33.2158  -44.4992  -50.5348 H         1 UNK         0.0680 
     74 H74        33.4225  -42.9442  -54.1982 H         1 UNK         0.0650 
     75 H75        31.8017  -43.1388  -53.5799 H         1 UNK         0.0650 
     76 H76        34.2154  -44.6430  -56.0230 H         1 UNK         0.1397 
     77 H77        31.1136  -45.8712  -58.7213 H         1 UNK         0.1363 
     78 H78        30.1039  -44.0843  -54.9570 H         1 UNK         0.1355 
     79 H79        28.4110  -45.2362  -56.2640 H         1 UNK         0.0707 
     80 H80        28.8266  -46.1223  -57.7091 H         1 UNK         0.0707 
     81 H81        28.5582  -42.7121  -56.0970 H         1 UNK         0.1034 
     82 H82        28.4410  -41.5954  -57.4122 H         1 UNK         0.1034 
     83 H83        26.5013  -41.4247  -55.9707 H         1 UNK         0.0482 
     84 H84        24.1144  -42.1263  -59.1140 H         1 UNK         0.3460 
     85 H85        24.3850  -43.3252  -57.8727 H         1 UNK         0.3460 
     86 H86        26.3462  -44.3079  -56.0459 H         1 UNK         0.2989 
     87 H87        25.1209  -44.9218  -53.7765 H         1 UNK         0.0559 
     88 H88        22.2172  -44.0985  -54.2842 H         1 UNK         0.0848 
     89 H89        23.1888  -43.6553  -52.8876 H         1 UNK         0.0848 
     90 H90        22.7570  -45.3348  -53.1476 H         1 UNK         0.0848 
     91 H91        23.1726  -45.8518  -55.7399 H         1 UNK         0.3144 
     92 H92        23.8055  -48.0849  -56.5402 H         1 UNK         0.0727 
     93 H93        24.0121  -47.6878  -59.0369 H         1 UNK         0.0790 
     94 H94        25.1081  -46.3423  -58.7306 H         1 UNK         0.0790 
     95 H95        23.4279  -46.2513  -58.2163 H         1 UNK         0.0790 
     96 H96        26.6841  -48.0270  -56.9616 H         1 UNK         0.3215 
     97 H97        26.9949  -51.3991  -56.7564 H         1 UNK         0.0863 
     98 H98        28.2223  -51.6228  -58.9148 H         1 UNK         0.0808 
     99 H99        27.3894  -50.2068  -59.5575 H         1 UNK         0.0808 
    100 H100       26.4883  -51.6702  -59.1851 H         1 UNK         0.0808 
    101 H101       28.7814  -49.3026  -57.7394 H         1 UNK         0.3118 
    102 H102       29.5303  -47.5855  -55.9915 H         1 UNK         0.0546 
    103 H103       29.2846  -47.8499  -53.5622 H         1 UNK         0.0828 
    104 H104       30.9784  -47.6060  -53.9714 H         1 UNK         0.0828 
    105 H105       30.3830  -49.2121  -53.5566 H         1 UNK         0.0828 
    106 H106       31.7282  -49.4313  -55.6596 H         1 UNK         0.3005 
    107 H107       32.1793  -50.3437  -58.8614 H         1 UNK         0.1257 
    108 H108       32.6674  -47.9528  -59.6272 H         1 UNK         0.0775 
    109 H109       33.9687  -49.0903  -59.6870 H         1 UNK         0.0775 
    110 H110       34.6874  -45.1070  -58.4359 H         1 UNK         0.0840 
    111 H111       33.4657  -45.7709  -59.4816 H         1 UNK         0.0840 
    112 H112       34.1211  -49.7047  -56.7998 H         1 UNK         0.2987 
    113 H113       33.5078  -52.5372  -54.8483 H         1 UNK         0.0785 
    114 H114       34.7560  -53.6959  -56.6815 H         1 UNK         0.0798 
    115 H115       35.8229  -53.2806  -55.3518 H         1 UNK         0.0798 
    116 H116       35.8392  -52.3196  -56.8320 H         1 UNK         0.0798 
    117 H117       35.7403  -50.8009  -54.8426 H         1 UNK         0.3079 
    118 H118       35.8808  -49.3111  -53.0883 H         1 UNK         0.0794 
    119 H119       34.1960  -47.2809  -54.6657 H         1 UNK         0.0786 
    120 H120       35.6986  -48.0186  -55.1985 H         1 UNK         0.0786 
    121 H121       35.7108  -46.9060  -53.8428 H         1 UNK         0.0786 
    122 H122       33.9052  -47.4524  -52.1555 H         1 UNK         0.3032 
    123 H123       32.6418  -49.0890  -49.4723 H         1 UNK         0.1094 
    124 H124       35.2751  -47.6189  -48.9053 H         1 UNK         0.0794 
    125 H125       33.9560  -47.8452  -47.7552 H         1 UNK         0.0794 
    126 H126       34.8554  -49.2310  -48.3445 H         1 UNK         0.0794 
    127 H127       33.4519  -46.3058  -49.8950 H         1 UNK         0.3016 
@<TRIPOS>BOND
     1    1    2 1    
     2    1   67 1    
     3    1   68 1    
     4    1   69 1    
     5    2    3 2    
     6    2    4 am   BACKBONE|DICT|INTERRES
     7    4    5 1    
     8    4   70 1    
     9    5    6 1    
    10    5   65 1    
    11    5   71 1    
    12    6    7 1    
    13    6   72 1    
    14    6   73 1    
    15    7    8 1    
    16    8    9 1    
    17    8   74 1    
    18    8   75 1    
    19    9   10 ar   
    20    9   14 ar   
    21   10   11 ar   
    22   10   76 1    
    23   11   12 ar   
    24   11   48 1    
    25   12   13 ar   
    26   12   77 1    
    27   13   14 ar   
    28   13   15 1    
    29   14   78 1    
    30   15   16 1    
    31   15   79 1    
    32   15   80 1    
    33   16   17 1    
    34   17   18 1    
    35   17   81 1    
    36   17   82 1    
    37   18   19 1    
    38   18   22 1    
    39   18   83 1    
    40   19   20 am   BACKBONE|DICT|INTERRES
    41   19   21 2    
    42   20   84 1    
    43   20   85 1    
    44   22   23 am   BACKBONE|DICT|INTERRES
    45   22   86 1    
    46   23   24 2    
    47   23   25 1    
    48   25   26 1    
    49   25   27 1    
    50   25   87 1    
    51   26   88 1    
    52   26   89 1    
    53   26   90 1    
    54   27   28 am   BACKBONE|DICT|INTERRES
    55   27   91 1    
    56   28   29 2    
    57   28   30 1    
    58   30   31 1    
    59   30   32 1    
    60   30   92 1    
    61   31   93 1    
    62   31   94 1    
    63   31   95 1    
    64   32   33 am   BACKBONE|DICT|INTERRES
    65   32   96 1    
    66   33   34 2    
    67   33   35 1    
    68   35   36 1    
    69   35   37 1    
    70   35   97 1    
    71   36   98 1    
    72   36   99 1    
    73   36  100 1    
    74   37   38 am   BACKBONE|DICT|INTERRES
    75   37  101 1    
    76   38   39 2    
    77   38   40 1    
    78   40   41 1    
    79   40   42 1    
    80   40  102 1    
    81   41  103 1    
    82   41  104 1    
    83   41  105 1    
    84   42   43 am   BACKBONE|DICT|INTERRES
    85   42  106 1    
    86   43   44 2    
    87   43   45 1    
    88   45   46 1    
    89   45   49 1    
    90   45  107 1    
    91   46   47 1    
    92   46  108 1    
    93   46  109 1    
    94   47   48 1    
    95   48  110 1    
    96   48  111 1    
    97   49   50 am   BACKBONE|DICT|INTERRES
    98   49  112 1    
    99   50   51 2    
   100   50   52 1    
   101   52   53 1    
   102   52   54 1    
   103   52  113 1    
   104   53  114 1    
   105   53  115 1    
   106   53  116 1    
   107   54   55 am   BACKBONE|DICT|INTERRES
   108   54  117 1    
   109   55   56 2    
   110   55   57 1    
   111   57   58 1    
   112   57   59 1    
   113   57  118 1    
   114   58  119 1    
   115   58  120 1    
   116   58  121 1    
   117   59   60 am   BACKBONE|DICT|INTERRES
   118   59  122 1    
   119   60   61 2    
   120   60   62 1    
   121   62   63 1    
   122   62   64 1    
   123   62  123 1    
   124   63  124 1    
   125   63  125 1    
   126   63  126 1    
   127   64   65 am   BACKBONE|DICT|INTERRES
   128   64  127 1    
   129   65   66 2    
@<TRIPOS>SUBSTRUCTURE
     1 UNK         1 GROUP             0       ****    0 ROOT    
