@<TRIPOS>MOLECULE
3R134
127   129    1
SMALL
USER_CHARGES


@<TRIPOS>ATOM
      1 CA         35.6455  -44.8871  -50.1495 C.3       0 UNK        -0.1968 
      2 C          35.1979  -44.9458  -51.6025 C.2       0 UNK         0.4852 
      3 O          34.7527  -43.9344  -52.1457 O.2       0 UNK        -0.5359 
      4 N          35.3137  -46.1185  -52.2336 N.am      1 UNK        -0.4300 
      5 CA         34.9543  -46.3743  -53.6254 C.3       1 UNK         0.0863 
      6 C6         33.4225  -46.5725  -53.8032 C.3       11 UNK        -0.0953 
      7 S7         32.8396  -46.1454  -55.4775 S.3       11 UNK        -0.2369 
      8 C8         32.7229  -44.3278  -55.3825 C.3       11 UNK         0.0226 
      9 C9         31.4159  -43.8551  -54.7614 C.ar      11 UNK        -0.0699 
     10 C10        31.3023  -43.7146  -53.3758 C.ar      11 UNK        -0.0804 
     11 C11        30.1045  -43.2874  -52.7977 C.ar      11 UNK        -0.0871 
     12 C12        29.0259  -42.9483  -53.6199 C.ar      11 UNK        -0.1008 
     13 C13        29.1401  -43.0449  -55.0101 C.ar      11 UNK        -0.0735 
     14 C14        30.3292  -43.5179  -55.5746 C.ar      11 UNK        -0.0945 
     15 C15        27.9964  -42.5984  -55.9057 C.3       11 UNK         0.0169 
     16 S16        26.9361  -43.9910  -56.3897 S.3       11 UNK        -0.2669 
     17 C17        25.8057  -43.1591  -57.5632 C.3       11 UNK        -0.0850 
     18 CA         26.1257  -43.4280  -59.0589 C.3       10 UNK         0.0855 
     19 C          27.4247  -42.7056  -59.5222 C.2       10 UNK         0.5543 
     20 N          27.3505  -41.4032  -59.7615 N.am      10 UNK        -0.7343 
     21 O          28.4973  -43.2972  -59.6323 O.2       10 UNK        -0.5027 
     22 N          26.1062  -44.8665  -59.3520 N.am      10 UNK        -0.4495 
     23 C          26.1719  -45.4221  -60.5664 C.2       10 UNK         0.4903 
     24 O          26.1505  -44.7748  -61.6151 O.2       10 UNK        -0.4860 
     25 CA         26.2810  -46.9607  -60.6099 C.3       9 UNK         0.0227 
     26 CB         26.5131  -47.4987  -62.0349 C.3       9 UNK        -0.1964 
     27 N          27.3419  -47.4681  -59.7320 N.am      9 UNK        -0.4231 
     28 C          27.2349  -47.6420  -58.4088 C.2       9 UNK         0.5014 
     29 O          26.2221  -47.3587  -57.7640 O.2       9 UNK        -0.5270 
     30 CA         28.4831  -48.1766  -57.6862 C.3       8 UNK         0.0284 
     31 CB         29.3358  -47.0143  -57.1495 C.3       8 UNK        -0.1977 
     32 N          28.1360  -49.0608  -56.5738 N.am      8 UNK        -0.4342 
     33 C          27.5135  -50.2418  -56.6873 C.2       8 UNK         0.5039 
     34 O          27.2180  -50.7596  -57.7657 O.2       8 UNK        -0.5547 
     35 CA         27.1722  -50.9850  -55.3870 C.3       7 UNK         0.0281 
     36 CB         28.3286  -51.9128  -54.9802 C.3       7 UNK        -0.1963 
     37 N          26.8751  -50.0710  -54.2801 N.am      7 UNK        -0.4444 
     38 C          25.6406  -49.7281  -53.8867 C.2       7 UNK         0.5104 
     39 O          24.6143  -50.1172  -54.4454 O.2       7 UNK        -0.5100 
     40 CA         25.5090  -48.8365  -52.6362 C.3       6 UNK         0.0396 
     41 CB         25.0349  -49.6751  -51.4375 C.3       6 UNK        -0.1801 
     42 N          26.7575  -48.1620  -52.2713 N.am      6 UNK        -0.4747 
     43 C          27.1460  -46.9692  -52.7450 C.2       6 UNK         0.5012 
     44 O          26.4615  -46.2810  -53.5004 O.2       6 UNK        -0.5003 
     45 CA         28.5394  -46.4642  -52.3069 C.3       5 UNK         0.0782 
     46 C46        28.3985  -45.5258  -51.0810 C.3       11 UNK        -0.0868 
     47 S47        29.9906  -44.8408  -50.5082 S.3       11 UNK        -0.2515 
     48 C48        29.9876  -43.1923  -51.2841 C.3       11 UNK         0.0199 
     49 N          29.5111  -47.5458  -52.0725 N.am      5 UNK        -0.4607 
     50 C          29.8916  -48.4395  -52.9918 C.2       4 UNK         0.5031 
     51 O          29.3945  -48.5146  -54.1184 O.2       4 UNK        -0.5119 
     52 CA         30.9605  -49.4565  -52.5840 C.3       4 UNK         0.0263 
     53 CB         30.3478  -50.5947  -51.7465 C.3       4 UNK        -0.1967 
     54 N          31.5329  -49.9791  -53.8197 N.am      4 UNK        -0.4237 
     55 C          32.6988  -50.6130  -53.9659 C.2       3 UNK         0.4908 
     56 O          33.4384  -50.9108  -53.0278 O.2       3 UNK        -0.5102 
     57 CA         33.1393  -50.9327  -55.4039 C.3       3 UNK         0.0241 
     58 CB         31.9998  -50.8724  -56.4453 C.3       3 UNK        -0.1971 
     59 N          34.1650  -49.9607  -55.7659 N.am      3 UNK        -0.4139 
     60 C          35.4747  -50.2097  -55.8909 C.2       2 UNK         0.5016 
     61 O          35.9751  -51.3347  -55.8588 O.2       2 UNK        -0.5319 
     62 CA         36.3862  -48.9795  -56.0660 C.3       2 UNK         0.0286 
     63 CB         36.6339  -48.6976  -57.5568 C.3       2 UNK        -0.1963 
     64 N          35.8336  -47.7772  -55.4296 N.am      2 UNK        -0.4790 
     65 C          35.7526  -47.5979  -54.1041 C.2       1 UNK         0.5024 
     66 O          36.2479  -48.3687  -53.2769 O.2       1 UNK        -0.4888 
     67 H67        36.4426  -44.1536  -50.0317 H         1 UNK         0.0892 
     68 H68        34.8122  -44.5909  -49.5130 H         1 UNK         0.0892 
     69 H69        36.0154  -45.8500  -49.7976 H         1 UNK         0.0892 
     70 H70        35.7336  -46.9187  -51.7745 H         1 UNK         0.3107 
     71 H71        35.2920  -45.5174  -54.2123 H         1 UNK         0.0773 
     72 H72        33.1334  -47.6004  -53.5849 H         1 UNK         0.0680 
     73 H73        32.8657  -45.9746  -53.0853 H         1 UNK         0.0680 
     74 H74        32.8159  -43.9251  -56.3921 H         1 UNK         0.0650 
     75 H75        33.5693  -43.9284  -54.8220 H         1 UNK         0.0650 
     76 H76        32.1437  -43.9440  -52.7377 H         1 UNK         0.1397 
     77 H77        28.1009  -42.5992  -53.1815 H         1 UNK         0.1363 
     78 H78        30.4129  -43.6050  -56.6496 H         1 UNK         0.1355 
     79 H79        28.4010  -42.1179  -56.7974 H         1 UNK         0.0707 
     80 H80        27.3916  -41.8448  -55.3987 H         1 UNK         0.0707 
     81 H81        24.7963  -43.5120  -57.3467 H         1 UNK         0.1034 
     82 H82        25.7793  -42.0870  -57.3600 H         1 UNK         0.1034 
     83 H83        25.3105  -42.9963  -59.6430 H         1 UNK         0.0482 
     84 H84        26.4796  -40.9029  -59.6751 H         1 UNK         0.3460 
     85 H85        28.1816  -40.9122  -60.0521 H         1 UNK         0.3460 
     86 H86        26.1470  -45.4842  -58.5477 H         1 UNK         0.2989 
     87 H87        25.3234  -47.3556  -60.2639 H         1 UNK         0.0559 
     88 H88        27.4473  -47.1292  -62.4598 H         1 UNK         0.0848 
     89 H89        25.7076  -47.1942  -62.7046 H         1 UNK         0.0848 
     90 H90        26.5449  -48.5883  -62.0484 H         1 UNK         0.0848 
     91 H91        28.2251  -47.6771  -60.1757 H         1 UNK         0.3144 
     92 H92        29.0815  -48.7524  -58.3951 H         1 UNK         0.0727 
     93 H93        30.2644  -47.3750  -56.7073 H         1 UNK         0.0790 
     94 H94        28.8048  -46.4463  -56.3840 H         1 UNK         0.0790 
     95 H95        29.6034  -46.3168  -57.9444 H         1 UNK         0.0790 
     96 H96        28.3873  -48.7296  -55.6460 H         1 UNK         0.3215 
     97 H97        26.3020  -51.6131  -55.5910 H         1 UNK         0.0863 
     98 H98        28.0698  -52.5067  -54.1035 H         1 UNK         0.0808 
     99 H99        29.2336  -51.3529  -54.7503 H         1 UNK         0.0808 
    100 H100       28.5709  -52.6103  -55.7833 H         1 UNK         0.0808 
    101 H101       27.6654  -49.6352  -53.8230 H         1 UNK         0.3118 
    102 H102       24.7409  -48.0892  -52.8467 H         1 UNK         0.0546 
    103 H103       24.0863  -50.1676  -51.6558 H         1 UNK         0.0828 
    104 H104       24.8783  -49.0539  -50.5555 H         1 UNK         0.0828 
    105 H105       25.7531  -50.4539  -51.1779 H         1 UNK         0.0828 
    106 H106       27.3739  -48.6493  -51.6365 H         1 UNK         0.3005 
    107 H107       28.9242  -45.8769  -53.1443 H         1 UNK         0.1257 
    108 H108       27.9514  -46.0630  -50.2423 H         1 UNK         0.0775 
    109 H109       27.7184  -44.7015  -51.3053 H         1 UNK         0.0775 
    110 H110       29.0871  -42.6505  -50.9904 H         1 UNK         0.0840 
    111 H111       30.8296  -42.6177  -50.8953 H         1 UNK         0.0840 
    112 H112       29.9591  -47.5431  -51.1673 H         1 UNK         0.2987 
    113 H113       31.7384  -48.9462  -52.0123 H         1 UNK         0.0785 
    114 H114       29.9186  -50.2135  -50.8193 H         1 UNK         0.0798 
    115 H115       31.0998  -51.3338  -51.4698 H         1 UNK         0.0798 
    116 H116       29.5545  -51.1140  -52.2848 H         1 UNK         0.0798 
    117 H117       30.9974  -49.7220  -54.6403 H         1 UNK         0.3079 
    118 H118       33.5471  -51.9458  -55.4012 H         1 UNK         0.0794 
    119 H119       31.5671  -49.8753  -56.5396 H         1 UNK         0.0786 
    120 H120       31.1978  -51.5666  -56.1925 H         1 UNK         0.0786 
    121 H121       32.3649  -51.1597  -57.4316 H         1 UNK         0.0786 
    122 H122       33.8737  -48.9940  -55.7872 H         1 UNK         0.3032 
    123 H123       37.3444  -49.2117  -55.5948 H         1 UNK         0.1094 
    124 H124       35.7105  -48.4497  -58.0819 H         1 UNK         0.0794 
    125 H125       37.3317  -47.8713  -57.6939 H         1 UNK         0.0794 
    126 H126       37.0656  -49.5692  -58.0510 H         1 UNK         0.0794 
    127 H127       35.4091  -47.0915  -56.0396 H         1 UNK         0.3016 
@<TRIPOS>BOND
     1    1    2 1    
     2    1   67 1    
     3    1   68 1    
     4    1   69 1    
     5    2    3 2    
     6    2    4 am   BACKBONE|DICT|INTERRES
     7    4    5 1    
     8    4   70 1    
     9    5    6 1    
    10    5   65 1    
    11    5   71 1    
    12    6    7 1    
    13    6   72 1    
    14    6   73 1    
    15    7    8 1    
    16    8    9 1    
    17    8   74 1    
    18    8   75 1    
    19    9   10 ar   
    20    9   14 ar   
    21   10   11 ar   
    22   10   76 1    
    23   11   12 ar   
    24   11   48 1    
    25   12   13 ar   
    26   12   77 1    
    27   13   14 ar   
    28   13   15 1    
    29   14   78 1    
    30   15   16 1    
    31   15   79 1    
    32   15   80 1    
    33   16   17 1    
    34   17   18 1    
    35   17   81 1    
    36   17   82 1    
    37   18   19 1    
    38   18   22 1    
    39   18   83 1    
    40   19   20 am   BACKBONE|DICT|INTERRES
    41   19   21 2    
    42   20   84 1    
    43   20   85 1    
    44   22   23 am   BACKBONE|DICT|INTERRES
    45   22   86 1    
    46   23   24 2    
    47   23   25 1    
    48   25   26 1    
    49   25   27 1    
    50   25   87 1    
    51   26   88 1    
    52   26   89 1    
    53   26   90 1    
    54   27   28 am   BACKBONE|DICT|INTERRES
    55   27   91 1    
    56   28   29 2    
    57   28   30 1    
    58   30   31 1    
    59   30   32 1    
    60   30   92 1    
    61   31   93 1    
    62   31   94 1    
    63   31   95 1    
    64   32   33 am   BACKBONE|DICT|INTERRES
    65   32   96 1    
    66   33   34 2    
    67   33   35 1    
    68   35   36 1    
    69   35   37 1    
    70   35   97 1    
    71   36   98 1    
    72   36   99 1    
    73   36  100 1    
    74   37   38 am   BACKBONE|DICT|INTERRES
    75   37  101 1    
    76   38   39 2    
    77   38   40 1    
    78   40   41 1    
    79   40   42 1    
    80   40  102 1    
    81   41  103 1    
    82   41  104 1    
    83   41  105 1    
    84   42   43 am   BACKBONE|DICT|INTERRES
    85   42  106 1    
    86   43   44 2    
    87   43   45 1    
    88   45   46 1    
    89   45   49 1    
    90   45  107 1    
    91   46   47 1    
    92   46  108 1    
    93   46  109 1    
    94   47   48 1    
    95   48  110 1    
    96   48  111 1    
    97   49   50 am   BACKBONE|DICT|INTERRES
    98   49  112 1    
    99   50   51 2    
   100   50   52 1    
   101   52   53 1    
   102   52   54 1    
   103   52  113 1    
   104   53  114 1    
   105   53  115 1    
   106   53  116 1    
   107   54   55 am   BACKBONE|DICT|INTERRES
   108   54  117 1    
   109   55   56 2    
   110   55   57 1    
   111   57   58 1    
   112   57   59 1    
   113   57  118 1    
   114   58  119 1    
   115   58  120 1    
   116   58  121 1    
   117   59   60 am   BACKBONE|DICT|INTERRES
   118   59  122 1    
   119   60   61 2    
   120   60   62 1    
   121   62   63 1    
   122   62   64 1    
   123   62  123 1    
   124   63  124 1    
   125   63  125 1    
   126   63  126 1    
   127   64   65 am   BACKBONE|DICT|INTERRES
   128   64  127 1    
   129   65   66 2    
@<TRIPOS>SUBSTRUCTURE
     1 UNK         1 GROUP             0       ****    0 ROOT    
