@<TRIPOS>MOLECULE
3R134
127   129    1
SMALL
USER_CHARGES


@<TRIPOS>ATOM
      1 CA         38.0514  -45.5163  -51.1261 C.3       0 UNK        -0.1968 
      2 C          36.6611  -45.3587  -51.7241 C.2       0 UNK         0.4852 
      3 O          35.7889  -44.7681  -51.0867 O.2       0 UNK        -0.5359 
      4 N          36.4502  -45.8930  -52.9373 N.am      1 UNK        -0.4300 
      5 CA         35.1989  -45.8492  -53.7134 C.3       1 UNK         0.0863 
      6 C6         34.7212  -44.3949  -53.9975 C.3       11 UNK        -0.0953 
      7 S7         33.9906  -44.1864  -55.6549 S.3       11 UNK        -0.2369 
      8 C8         32.8597  -42.7854  -55.3861 C.3       11 UNK         0.0226 
      9 C9         31.4939  -43.2233  -54.8733 C.ar      11 UNK        -0.0699 
     10 C10        31.2315  -43.2729  -53.4994 C.ar      11 UNK        -0.0804 
     11 C11        29.9635  -43.6307  -53.0289 C.ar      11 UNK        -0.0871 
     12 C12        28.9437  -43.8865  -53.9484 C.ar      11 UNK        -0.1008 
     13 C13        29.2088  -43.9093  -55.3177 C.ar      11 UNK        -0.0735 
     14 C14        30.4829  -43.5654  -55.7785 C.ar      11 UNK        -0.0945 
     15 C15        28.1326  -44.3888  -56.2752 C.3       11 UNK         0.0169 
     16 S16        27.0848  -43.0338  -56.8824 S.3       11 UNK        -0.2669 
     17 C17        27.8740  -42.6406  -58.4814 C.3       11 UNK        -0.0850 
     18 CA         27.0999  -43.2535  -59.6904 C.3       10 UNK         0.0855 
     19 C          27.5899  -42.7436  -61.0829 C.2       10 UNK         0.5543 
     20 N          28.0087  -41.4897  -61.1974 N.am      10 UNK        -0.7343 
     21 O          27.5411  -43.4555  -62.0850 O.2       10 UNK        -0.5027 
     22 N          26.9976  -44.7227  -59.6105 N.am      10 UNK        -0.4495 
     23 C          28.0077  -45.5957  -59.7115 C.2       10 UNK         0.4903 
     24 O          29.1885  -45.2721  -59.8534 O.2       10 UNK        -0.4860 
     25 CA         27.6290  -47.0807  -59.5793 C.3       9 UNK         0.0227 
     26 CB         28.8164  -48.0234  -59.8501 C.3       9 UNK        -0.1964 
     27 N          27.0921  -47.3718  -58.2493 N.am      9 UNK        -0.4231 
     28 C          25.8160  -47.2224  -57.8696 C.2       9 UNK         0.5014 
     29 O          24.9438  -46.7389  -58.5950 O.2       9 UNK        -0.5270 
     30 CA         25.4711  -47.7060  -56.4446 C.3       8 UNK         0.0284 
     31 CB         23.9542  -47.8312  -56.1904 C.3       8 UNK        -0.1977 
     32 N          26.1798  -48.9466  -56.1005 N.am      8 UNK        -0.4342 
     33 C          26.0769  -50.1436  -56.6981 C.2       8 UNK         0.5039 
     34 O          25.2306  -50.4212  -57.5489 O.2       8 UNK        -0.5547 
     35 CA         27.1248  -51.2090  -56.3235 C.3       7 UNK         0.0281 
     36 CB         28.1939  -51.3015  -57.4247 C.3       7 UNK        -0.1963 
     37 N          27.7877  -50.9702  -55.0374 N.am      7 UNK        -0.4444 
     38 C          27.2146  -51.1707  -53.8424 C.2       7 UNK         0.5104 
     39 O          26.0698  -51.5996  -53.6948 O.2       7 UNK        -0.5100 
     40 CA         28.0537  -50.8187  -52.6010 C.3       6 UNK         0.0396 
     41 CB         29.0242  -51.9603  -52.2600 C.3       6 UNK        -0.1801 
     42 N          28.8012  -49.5675  -52.7499 N.am      6 UNK        -0.4747 
     43 C          28.2436  -48.3554  -52.8857 C.2       6 UNK         0.5012 
     44 O          27.0287  -48.1562  -52.8619 O.2       6 UNK        -0.5003 
     45 CA         29.1962  -47.1771  -53.1626 C.3       5 UNK         0.0782 
     46 C46        29.8523  -46.6096  -51.8734 C.3       11 UNK        -0.0868 
     47 S47        28.8286  -45.3190  -51.0840 S.3       11 UNK        -0.2515 
     48 C48        29.7089  -43.7740  -51.5305 C.3       11 UNK         0.0199 
     49 N          30.1876  -47.4999  -54.1896 N.am      5 UNK        -0.4607 
     50 C          29.9054  -47.7800  -55.4690 C.2       4 UNK         0.5031 
     51 O          28.7752  -47.7405  -55.9519 O.2       4 UNK        -0.5119 
     52 CA         31.0745  -48.2222  -56.3580 C.3       4 UNK         0.0263 
     53 CB         31.7674  -47.0014  -56.9780 C.3       4 UNK        -0.1967 
     54 N          32.0427  -49.0393  -55.6243 N.am      4 UNK        -0.4237 
     55 C          31.7863  -50.2751  -55.1693 C.2       3 UNK         0.4908 
     56 O          30.7290  -50.8737  -55.3690 O.2       3 UNK        -0.5102 
     57 CA         32.8731  -50.9308  -54.3023 C.3       3 UNK         0.0241 
     58 CB         34.0004  -51.5028  -55.1767 C.3       3 UNK        -0.1971 
     59 N          33.4319  -50.0068  -53.3115 N.am      3 UNK        -0.4139 
     60 C          32.7360  -49.4803  -52.2935 C.2       2 UNK         0.5016 
     61 O          31.5595  -49.7491  -52.0558 O.2       2 UNK        -0.5319 
     62 CA         33.4584  -48.4482  -51.4132 C.3       2 UNK         0.0286 
     63 CB         34.1893  -49.1442  -50.2546 C.3       2 UNK        -0.1963 
     64 N          34.4011  -47.5913  -52.1409 N.am      2 UNK        -0.4790 
     65 C          34.0778  -46.7512  -53.1373 C.2       1 UNK         0.5024 
     66 O          32.9463  -46.7000  -53.6189 O.2       1 UNK        -0.4888 
     67 H67        38.7225  -46.0633  -51.7881 H         1 UNK         0.0892 
     68 H68        38.4895  -44.5371  -50.9345 H         1 UNK         0.0892 
     69 H69        37.9946  -46.0548  -50.1804 H         1 UNK         0.0892 
     70 H70        37.2154  -46.3692  -53.3962 H         1 UNK         0.3107 
     71 H71        35.4633  -46.3067  -54.6680 H         1 UNK         0.0773 
     72 H72        35.5648  -43.7043  -53.9545 H         1 UNK         0.0680 
     73 H73        34.0286  -44.0550  -53.2273 H         1 UNK         0.0680 
     74 H74        33.3151  -42.0697  -54.6998 H         1 UNK         0.0650 
     75 H75        32.7377  -42.2561  -56.3322 H         1 UNK         0.0650 
     76 H76        32.0171  -43.0386  -52.7952 H         1 UNK         0.1397 
     77 H77        27.9559  -44.1465  -53.5931 H         1 UNK         0.1363 
     78 H78        30.6915  -43.5724  -56.8394 H         1 UNK         0.1355 
     79 H79        28.5945  -44.9284  -57.0996 H         1 UNK         0.0707 
     80 H80        27.4951  -45.1165  -55.7719 H         1 UNK         0.0707 
     81 H81        28.9170  -42.9603  -58.4815 H         1 UNK         0.1034 
     82 H82        27.8978  -41.5526  -58.5466 H         1 UNK         0.1034 
     83 H83        26.0697  -42.9015  -59.6262 H         1 UNK         0.0482 
     84 H84        28.3035  -41.1573  -62.1024 H         1 UNK         0.3460 
     85 H85        28.0261  -40.8644  -60.4079 H         1 UNK         0.3460 
     86 H86        26.0667  -45.0975  -59.4707 H         1 UNK         0.2989 
     87 H87        26.8636  -47.2919  -60.3290 H         1 UNK         0.0559 
     88 H88        29.6263  -47.8689  -59.1375 H         1 UNK         0.0848 
     89 H89        29.2253  -47.8578  -60.8477 H         1 UNK         0.0848 
     90 H90        28.5139  -49.0691  -59.7949 H         1 UNK         0.0848 
     91 H91        27.7567  -47.6748  -57.5408 H         1 UNK         0.3144 
     92 H92        25.8541  -46.9446  -55.7641 H         1 UNK         0.0727 
     93 H93        23.4814  -48.5283  -56.8826 H         1 UNK         0.0790 
     94 H94        23.4587  -46.8674  -56.3133 H         1 UNK         0.0790 
     95 H95        23.7502  -48.1737  -55.1759 H         1 UNK         0.0790 
     96 H96        26.9564  -48.8242  -55.4612 H         1 UNK         0.3215 
     97 H97        26.6076  -52.1694  -56.2692 H         1 UNK         0.0863 
     98 H98        28.7566  -50.3721  -57.5164 H         1 UNK         0.0808 
     99 H99        27.7413  -51.5066  -58.3959 H         1 UNK         0.0808 
    100 H100       28.9041  -52.1035  -57.2225 H         1 UNK         0.0808 
    101 H101       28.7641  -50.6888  -55.0690 H         1 UNK         0.3118 
    102 H102       27.3677  -50.6961  -51.7604 H         1 UNK         0.0546 
    103 H103       29.5636  -51.7578  -51.3346 H         1 UNK         0.0828 
    104 H104       29.7624  -52.1126  -53.0482 H         1 UNK         0.0828 
    105 H105       28.4897  -52.9015  -52.1252 H         1 UNK         0.0828 
    106 H106       29.8173  -49.6364  -52.7217 H         1 UNK         0.3005 
    107 H107       28.5651  -46.4093  -53.6049 H         1 UNK         0.1257 
    108 H108       30.8234  -46.1681  -52.1006 H         1 UNK         0.0775 
    109 H109       30.0592  -47.3977  -51.1469 H         1 UNK         0.0775 
    110 H110       29.1219  -42.9207  -51.1887 H         1 UNK         0.0840 
    111 H111       30.6493  -43.7434  -50.9779 H         1 UNK         0.0840 
    112 H112       31.1617  -47.4732  -53.9053 H         1 UNK         0.2987 
    113 H113       30.6682  -48.8317  -57.1671 H         1 UNK         0.0785 
    114 H114       32.5843  -47.2942  -57.6374 H         1 UNK         0.0798 
    115 H115       31.0650  -46.4124  -57.5700 H         1 UNK         0.0798 
    116 H116       32.1705  -46.3426  -56.2099 H         1 UNK         0.0798 
    117 H117       32.9142  -48.5969  -55.3722 H         1 UNK         0.3079 
    118 H118       32.4078  -51.7584  -53.7622 H         1 UNK         0.0794 
    119 H119       34.7303  -52.0461  -54.5763 H         1 UNK         0.0786 
    120 H120       34.5298  -50.7211  -55.7229 H         1 UNK         0.0786 
    121 H121       33.6038  -52.2035  -55.9130 H         1 UNK         0.0786 
    122 H122       34.3961  -49.7304  -53.4252 H         1 UNK         0.3032 
    123 H123       32.6900  -47.7984  -50.9885 H         1 UNK         0.1094 
    124 H124       34.9978  -49.7838  -50.6108 H         1 UNK         0.0794 
    125 H125       34.6145  -48.4187  -49.5607 H         1 UNK         0.0794 
    126 H126       33.5044  -49.7724  -49.6829 H         1 UNK         0.0794 
    127 H127       35.3525  -47.5739  -51.8038 H         1 UNK         0.3016 
@<TRIPOS>BOND
     1    1    2 1    
     2    1   67 1    
     3    1   68 1    
     4    1   69 1    
     5    2    3 2    
     6    2    4 am   BACKBONE|DICT|INTERRES
     7    4    5 1    
     8    4   70 1    
     9    5    6 1    
    10    5   65 1    
    11    5   71 1    
    12    6    7 1    
    13    6   72 1    
    14    6   73 1    
    15    7    8 1    
    16    8    9 1    
    17    8   74 1    
    18    8   75 1    
    19    9   10 ar   
    20    9   14 ar   
    21   10   11 ar   
    22   10   76 1    
    23   11   12 ar   
    24   11   48 1    
    25   12   13 ar   
    26   12   77 1    
    27   13   14 ar   
    28   13   15 1    
    29   14   78 1    
    30   15   16 1    
    31   15   79 1    
    32   15   80 1    
    33   16   17 1    
    34   17   18 1    
    35   17   81 1    
    36   17   82 1    
    37   18   19 1    
    38   18   22 1    
    39   18   83 1    
    40   19   20 am   BACKBONE|DICT|INTERRES
    41   19   21 2    
    42   20   84 1    
    43   20   85 1    
    44   22   23 am   BACKBONE|DICT|INTERRES
    45   22   86 1    
    46   23   24 2    
    47   23   25 1    
    48   25   26 1    
    49   25   27 1    
    50   25   87 1    
    51   26   88 1    
    52   26   89 1    
    53   26   90 1    
    54   27   28 am   BACKBONE|DICT|INTERRES
    55   27   91 1    
    56   28   29 2    
    57   28   30 1    
    58   30   31 1    
    59   30   32 1    
    60   30   92 1    
    61   31   93 1    
    62   31   94 1    
    63   31   95 1    
    64   32   33 am   BACKBONE|DICT|INTERRES
    65   32   96 1    
    66   33   34 2    
    67   33   35 1    
    68   35   36 1    
    69   35   37 1    
    70   35   97 1    
    71   36   98 1    
    72   36   99 1    
    73   36  100 1    
    74   37   38 am   BACKBONE|DICT|INTERRES
    75   37  101 1    
    76   38   39 2    
    77   38   40 1    
    78   40   41 1    
    79   40   42 1    
    80   40  102 1    
    81   41  103 1    
    82   41  104 1    
    83   41  105 1    
    84   42   43 am   BACKBONE|DICT|INTERRES
    85   42  106 1    
    86   43   44 2    
    87   43   45 1    
    88   45   46 1    
    89   45   49 1    
    90   45  107 1    
    91   46   47 1    
    92   46  108 1    
    93   46  109 1    
    94   47   48 1    
    95   48  110 1    
    96   48  111 1    
    97   49   50 am   BACKBONE|DICT|INTERRES
    98   49  112 1    
    99   50   51 2    
   100   50   52 1    
   101   52   53 1    
   102   52   54 1    
   103   52  113 1    
   104   53  114 1    
   105   53  115 1    
   106   53  116 1    
   107   54   55 am   BACKBONE|DICT|INTERRES
   108   54  117 1    
   109   55   56 2    
   110   55   57 1    
   111   57   58 1    
   112   57   59 1    
   113   57  118 1    
   114   58  119 1    
   115   58  120 1    
   116   58  121 1    
   117   59   60 am   BACKBONE|DICT|INTERRES
   118   59  122 1    
   119   60   61 2    
   120   60   62 1    
   121   62   63 1    
   122   62   64 1    
   123   62  123 1    
   124   63  124 1    
   125   63  125 1    
   126   63  126 1    
   127   64   65 am   BACKBONE|DICT|INTERRES
   128   64  127 1    
   129   65   66 2    
@<TRIPOS>SUBSTRUCTURE
     1 UNK         1 GROUP             0       ****    0 ROOT    
