@<TRIPOS>MOLECULE
3R134
127   129    1
SMALL
USER_CHARGES


@<TRIPOS>ATOM
      1 CA         37.4159  -44.1380  -50.0504 C.3       0 UNK        -0.1968 
      2 C          37.1715  -44.9537  -51.3114 C.2       0 UNK         0.4852 
      3 O          38.0683  -45.6706  -51.7597 O.2       0 UNK        -0.5359 
      4 N          35.9670  -44.8506  -51.8892 N.am      1 UNK        -0.4300 
      5 CA         35.5383  -45.5930  -53.0759 C.3       1 UNK         0.0863 
      6 C6         34.4174  -44.8391  -53.8324 C.3       11 UNK        -0.0953 
      7 S7         34.2290  -45.4182  -55.5534 S.3       11 UNK        -0.2369 
      8 C8         32.5131  -46.0233  -55.5724 C.3       11 UNK         0.0226 
      9 C9         31.5065  -44.8858  -55.4877 C.ar      11 UNK        -0.0699 
     10 C10        30.9052  -44.5705  -54.2682 C.ar      11 UNK        -0.0804 
     11 C11        29.9699  -43.5340  -54.1788 C.ar      11 UNK        -0.0871 
     12 C12        29.6666  -42.7908  -55.3232 C.ar      11 UNK        -0.1008 
     13 C13        30.2637  -43.0900  -56.5548 C.ar      11 UNK        -0.0735 
     14 C14        31.1769  -44.1470  -56.6275 C.ar      11 UNK        -0.0945 
     15 C15        30.0053  -42.2442  -57.8013 C.3       11 UNK         0.0169 
     16 S16        28.3269  -41.5346  -57.9158 S.3       11 UNK        -0.2669 
     17 C17        27.3306  -42.9631  -58.4655 C.3       11 UNK        -0.0850 
     18 CA         26.4423  -43.5931  -57.3490 C.3       10 UNK         0.0855 
     19 C          25.1676  -42.7726  -56.9731 C.2       10 UNK         0.5543 
     20 N          25.2137  -41.4503  -57.0485 N.am      10 UNK        -0.7343 
     21 O          24.1452  -43.3206  -56.5636 O.2       10 UNK        -0.5027 
     22 N          26.1416  -45.0028  -57.6370 N.am      10 UNK        -0.4495 
     23 C          25.4513  -45.4643  -58.6894 C.2       10 UNK         0.4903 
     24 O          24.9971  -44.7509  -59.5861 O.2       10 UNK        -0.4860 
     25 CA         25.2590  -46.9916  -58.7454 C.3       9 UNK         0.0227 
     26 CB         24.6660  -47.4874  -60.0814 C.3       9 UNK        -0.1964 
     27 N          26.4923  -47.7122  -58.4133 N.am      9 UNK        -0.4231 
     28 C          27.6675  -47.6822  -59.0616 C.2       9 UNK         0.5014 
     29 O          27.8628  -47.0707  -60.1128 O.2       9 UNK        -0.5270 
     30 CA         28.8397  -48.4524  -58.4222 C.3       8 UNK         0.0284 
     31 CB         29.8325  -47.4725  -57.7773 C.3       8 UNK        -0.1977 
     32 N          28.4191  -49.4343  -57.4175 N.am      8 UNK        -0.4342 
     33 C          27.7860  -50.5833  -57.6965 C.2       8 UNK         0.5039 
     34 O          27.5648  -50.9821  -58.8404 O.2       8 UNK        -0.5547 
     35 CA         27.2720  -51.4049  -56.5045 C.3       7 UNK         0.0281 
     36 CB         28.3615  -52.3378  -55.9610 C.3       7 UNK        -0.1963 
     37 N          26.7685  -50.5538  -55.4246 N.am      7 UNK        -0.4444 
     38 C          25.5726  -49.9503  -55.4411 C.2       7 UNK         0.5104 
     39 O          24.7640  -50.0514  -56.3633 O.2       7 UNK        -0.5100 
     40 CA         25.2281  -49.0679  -54.2308 C.3       6 UNK         0.0396 
     41 CB         24.6722  -49.9208  -53.0794 C.3       6 UNK        -0.1801 
     42 N          26.3679  -48.2816  -53.7538 N.am      6 UNK        -0.4747 
     43 C          26.9226  -47.2669  -54.4322 C.2       6 UNK         0.5012 
     44 O          26.5478  -46.8972  -55.5443 O.2       6 UNK        -0.5003 
     45 CA         28.1049  -46.5500  -53.7595 C.3       5 UNK         0.0782 
     46 C46        27.5788  -45.4286  -52.8240 C.3       11 UNK        -0.0868 
     47 S47        28.8776  -44.6225  -51.8252 S.3       11 UNK        -0.2515 
     48 C48        29.3093  -43.1755  -52.8501 C.3       11 UNK         0.0199 
     49 N          29.0357  -47.4655  -53.0858 N.am      5 UNK        -0.4607 
     50 C          29.7320  -48.4448  -53.6774 C.2       4 UNK         0.5031 
     51 O          29.5530  -48.8012  -54.8429 O.2       4 UNK        -0.5119 
     52 CA         30.7806  -49.1386  -52.7925 C.3       4 UNK         0.0263 
     53 CB         30.1954  -50.3931  -52.1135 C.3       4 UNK        -0.1967 
     54 N          32.0404  -49.4172  -53.4973 N.am      4 UNK        -0.4237 
     55 C          32.3074  -50.3611  -54.4175 C.2       3 UNK         0.4908 
     56 O          31.5064  -51.2110  -54.8006 O.2       3 UNK        -0.5102 
     57 CA         33.7315  -50.3960  -55.0096 C.3       3 UNK         0.0241 
     58 CB         33.7542  -49.7377  -56.3990 C.3       3 UNK        -0.1971 
     59 N          34.7452  -49.7653  -54.1617 N.am      3 UNK        -0.4139 
     60 C          35.1256  -50.2069  -52.9544 C.2       2 UNK         0.5016 
     61 O          34.7471  -51.2727  -52.4671 O.2       2 UNK        -0.5319 
     62 CA         36.0684  -49.3038  -52.1351 C.3       2 UNK         0.0286 
     63 CB         37.4845  -49.9014  -52.0962 C.3       2 UNK        -0.1963 
     64 N          36.1574  -47.9071  -52.5839 N.am      2 UNK        -0.4790 
     65 C          35.1473  -47.0297  -52.6705 C.2       1 UNK         0.5024 
     66 O          33.9709  -47.3150  -52.4328 O.2       1 UNK        -0.4888 
     67 H67        36.5447  -43.5452  -49.7720 H         1 UNK         0.0892 
     68 H68        37.6570  -44.7983  -49.2179 H         1 UNK         0.0892 
     69 H69        38.2542  -43.4583  -50.2004 H         1 UNK         0.0892 
     70 H70        35.2617  -44.2682  -51.4603 H         1 UNK         0.3107 
     71 H71        36.3935  -45.6587  -53.7530 H         1 UNK         0.0773 
     72 H72        33.4735  -44.8909  -53.2909 H         1 UNK         0.0680 
     73 H73        34.6624  -43.7775  -53.8922 H         1 UNK         0.0680 
     74 H74        32.3644  -46.7374  -54.7614 H         1 UNK         0.0650 
     75 H75        32.3547  -46.5734  -56.4994 H         1 UNK         0.0650 
     76 H76        31.1613  -45.1411  -53.3865 H         1 UNK         0.1397 
     77 H77        28.9741  -41.9641  -55.2478 H         1 UNK         0.1363 
     78 H78        31.6560  -44.3816  -57.5683 H         1 UNK         0.1355 
     79 H79        30.7199  -41.4202  -57.7976 H         1 UNK         0.0707 
     80 H80        30.2104  -42.8189  -58.7059 H         1 UNK         0.0707 
     81 H81        28.0110  -43.7178  -58.8635 H         1 UNK         0.1034 
     82 H82        26.7167  -42.6548  -59.3137 H         1 UNK         0.1034 
     83 H83        27.0345  -43.6311  -56.4343 H         1 UNK         0.0482 
     84 H84        26.0603  -40.9930  -57.3558 H         1 UNK         0.3460 
     85 H85        24.4047  -40.9070  -56.7919 H         1 UNK         0.3460 
     86 H86        26.4026  -45.6691  -56.9136 H         1 UNK         0.2989 
     87 H87        24.5455  -47.2378  -57.9575 H         1 UNK         0.0559 
     88 H88        25.3017  -47.2301  -60.9291 H         1 UNK         0.0848 
     89 H89        23.6878  -47.0408  -60.2629 H         1 UNK         0.0848 
     90 H90        24.5325  -48.5692  -60.0779 H         1 UNK         0.0848 
     91 H91        26.4734  -48.2033  -57.5294 H         1 UNK         0.3144 
     92 H92        29.3568  -48.9853  -59.2228 H         1 UNK         0.0727 
     93 H93        30.6897  -48.0035  -57.3638 H         1 UNK         0.0790 
     94 H94        29.3705  -46.9010  -56.9711 H         1 UNK         0.0790 
     95 H95        30.2122  -46.7574  -58.5083 H         1 UNK         0.0790 
     96 H96        28.6469  -49.2169  -56.4484 H         1 UNK         0.3215 
     97 H97        26.4511  -52.0285  -56.8666 H         1 UNK         0.0863 
     98 H98        29.1835  -51.7722  -55.5272 H         1 UNK         0.0808 
     99 H99        28.7750  -52.9640  -56.7528 H         1 UNK         0.0808 
    100 H100       27.9689  -53.0023  -55.1913 H         1 UNK         0.0808 
    101 H101       27.3895  -50.3780  -54.6479 H         1 UNK         0.3118 
    102 H102       24.4465  -48.3711  -54.5418 H         1 UNK         0.0546 
    103 H103       24.3426  -49.2982  -52.2476 H         1 UNK         0.0828 
    104 H104       25.4134  -50.6250  -52.6995 H         1 UNK         0.0828 
    105 H105       23.8092  -50.5022  -53.4072 H         1 UNK         0.0828 
    106 H106       26.7468  -48.5180  -52.8478 H         1 UNK         0.3005 
    107 H107       28.6634  -46.0793  -54.5702 H         1 UNK         0.1257 
    108 H108       26.8475  -45.8315  -52.1203 H         1 UNK         0.0775 
    109 H109       27.0497  -44.6682  -53.4022 H         1 UNK         0.0775 
    110 H110       28.4079  -42.5827  -53.0141 H         1 UNK         0.0840 
    111 H111       29.9948  -42.5424  -52.2854 H         1 UNK         0.0840 
    112 H112       29.2302  -47.2416  -52.1202 H         1 UNK         0.2987 
    113 H113       31.0588  -48.4400  -52.0014 H         1 UNK         0.0785 
    114 H114       30.9440  -50.9007  -51.5051 H         1 UNK         0.0798 
    115 H115       29.3675  -50.1280  -51.4550 H         1 UNK         0.0798 
    116 H116       29.8097  -51.1098  -52.8391 H         1 UNK         0.0798 
    117 H117       32.7925  -48.7769  -53.2632 H         1 UNK         0.3079 
    118 H118       34.0046  -51.4470  -55.1265 H         1 UNK         0.0794 
    119 H119       33.0059  -50.1841  -57.0559 H         1 UNK         0.0786 
    120 H120       34.7233  -49.8634  -56.8820 H         1 UNK         0.0786 
    121 H121       33.5428  -48.6705  -56.3436 H         1 UNK         0.0786 
    122 H122       35.1272  -48.8875  -54.4814 H         1 UNK         0.3032 
    123 H123       35.6749  -49.2899  -51.1162 H         1 UNK         0.1094 
    124 H124       37.9429  -49.9159  -53.0859 H         1 UNK         0.0794 
    125 H125       38.1370  -49.3350  -51.4312 H         1 UNK         0.0794 
    126 H126       37.4673  -50.9291  -51.7298 H         1 UNK         0.0794 
    127 H127       37.0921  -47.5479  -52.7362 H         1 UNK         0.3016 
@<TRIPOS>BOND
     1    1    2 1    
     2    1   67 1    
     3    1   68 1    
     4    1   69 1    
     5    2    3 2    
     6    2    4 am   BACKBONE|DICT|INTERRES
     7    4    5 1    
     8    4   70 1    
     9    5    6 1    
    10    5   65 1    
    11    5   71 1    
    12    6    7 1    
    13    6   72 1    
    14    6   73 1    
    15    7    8 1    
    16    8    9 1    
    17    8   74 1    
    18    8   75 1    
    19    9   10 ar   
    20    9   14 ar   
    21   10   11 ar   
    22   10   76 1    
    23   11   12 ar   
    24   11   48 1    
    25   12   13 ar   
    26   12   77 1    
    27   13   14 ar   
    28   13   15 1    
    29   14   78 1    
    30   15   16 1    
    31   15   79 1    
    32   15   80 1    
    33   16   17 1    
    34   17   18 1    
    35   17   81 1    
    36   17   82 1    
    37   18   19 1    
    38   18   22 1    
    39   18   83 1    
    40   19   20 am   BACKBONE|DICT|INTERRES
    41   19   21 2    
    42   20   84 1    
    43   20   85 1    
    44   22   23 am   BACKBONE|DICT|INTERRES
    45   22   86 1    
    46   23   24 2    
    47   23   25 1    
    48   25   26 1    
    49   25   27 1    
    50   25   87 1    
    51   26   88 1    
    52   26   89 1    
    53   26   90 1    
    54   27   28 am   BACKBONE|DICT|INTERRES
    55   27   91 1    
    56   28   29 2    
    57   28   30 1    
    58   30   31 1    
    59   30   32 1    
    60   30   92 1    
    61   31   93 1    
    62   31   94 1    
    63   31   95 1    
    64   32   33 am   BACKBONE|DICT|INTERRES
    65   32   96 1    
    66   33   34 2    
    67   33   35 1    
    68   35   36 1    
    69   35   37 1    
    70   35   97 1    
    71   36   98 1    
    72   36   99 1    
    73   36  100 1    
    74   37   38 am   BACKBONE|DICT|INTERRES
    75   37  101 1    
    76   38   39 2    
    77   38   40 1    
    78   40   41 1    
    79   40   42 1    
    80   40  102 1    
    81   41  103 1    
    82   41  104 1    
    83   41  105 1    
    84   42   43 am   BACKBONE|DICT|INTERRES
    85   42  106 1    
    86   43   44 2    
    87   43   45 1    
    88   45   46 1    
    89   45   49 1    
    90   45  107 1    
    91   46   47 1    
    92   46  108 1    
    93   46  109 1    
    94   47   48 1    
    95   48  110 1    
    96   48  111 1    
    97   49   50 am   BACKBONE|DICT|INTERRES
    98   49  112 1    
    99   50   51 2    
   100   50   52 1    
   101   52   53 1    
   102   52   54 1    
   103   52  113 1    
   104   53  114 1    
   105   53  115 1    
   106   53  116 1    
   107   54   55 am   BACKBONE|DICT|INTERRES
   108   54  117 1    
   109   55   56 2    
   110   55   57 1    
   111   57   58 1    
   112   57   59 1    
   113   57  118 1    
   114   58  119 1    
   115   58  120 1    
   116   58  121 1    
   117   59   60 am   BACKBONE|DICT|INTERRES
   118   59  122 1    
   119   60   61 2    
   120   60   62 1    
   121   62   63 1    
   122   62   64 1    
   123   62  123 1    
   124   63  124 1    
   125   63  125 1    
   126   63  126 1    
   127   64   65 am   BACKBONE|DICT|INTERRES
   128   64  127 1    
   129   65   66 2    
@<TRIPOS>SUBSTRUCTURE
     1 UNK         1 GROUP             0       ****    0 ROOT    
