@<TRIPOS>MOLECULE
3R134
127   129    1
SMALL
USER_CHARGES


@<TRIPOS>ATOM
      1 CA         36.3959  -43.8167  -49.3019 C.3       0 UNK        -0.1968 
      2 C          36.5829  -44.4103  -50.6908 C.2       0 UNK         0.4852 
      3 O          37.7172  -44.5213  -51.1597 O.2       0 UNK        -0.5359 
      4 N          35.4801  -44.7840  -51.3530 N.am      1 UNK        -0.4300 
      5 CA         35.4733  -45.4361  -52.6655 C.3       1 UNK         0.0863 
      6 C6         34.0827  -45.3098  -53.3379 C.3       11 UNK        -0.0953 
      7 S7         34.1623  -45.4705  -55.1535 S.3       11 UNK        -0.2369 
      8 C8         32.4793  -46.0338  -55.5557 C.3       11 UNK         0.0226 
      9 C9         31.4425  -44.9399  -55.3466 C.ar      11 UNK        -0.0699 
     10 C10        30.8003  -44.8024  -54.1130 C.ar      11 UNK        -0.0804 
     11 C11        29.8526  -43.7922  -53.9106 C.ar      11 UNK        -0.0871 
     12 C12        29.5627  -42.9116  -54.9573 C.ar      11 UNK        -0.1008 
     13 C13        30.1936  -43.0388  -56.2009 C.ar      11 UNK        -0.0735 
     14 C14        31.1296  -44.0606  -56.3868 C.ar      11 UNK        -0.0945 
     15 C15        29.9463  -42.0376  -57.3278 C.3       11 UNK         0.0169 
     16 S16        28.2228  -41.4528  -57.4605 S.3       11 UNK        -0.2669 
     17 C17        27.3783  -42.8773  -58.2318 C.3       11 UNK        -0.0850 
     18 CA         26.4232  -43.6471  -57.2688 C.3       10 UNK         0.0855 
     19 C          25.0711  -42.9279  -56.9601 C.2       10 UNK         0.5543 
     20 N          25.0442  -41.6035  -56.9260 N.am      10 UNK        -0.7343 
     21 O          24.0483  -43.5605  -56.7012 O.2       10 UNK        -0.5027 
     22 N          26.2328  -45.0403  -57.6976 N.am      10 UNK        -0.4495 
     23 C          25.6695  -45.4448  -58.8449 C.2       10 UNK         0.4903 
     24 O          25.2858  -44.6813  -59.7333 O.2       10 UNK        -0.4860 
     25 CA         25.5218  -46.9685  -59.0203 C.3       9 UNK         0.0227 
     26 CB         25.0939  -47.3842  -60.4439 C.3       9 UNK        -0.1964 
     27 N          26.7233  -47.6930  -58.5944 N.am      9 UNK        -0.4231 
     28 C          27.9616  -47.6115  -59.1052 C.2       9 UNK         0.5014 
     29 O          28.2611  -46.9384  -60.0922 O.2       9 UNK        -0.5270 
     30 CA         29.0693  -48.4006  -58.3803 C.3       8 UNK         0.0284 
     31 CB         29.9454  -47.4460  -57.5562 C.3       8 UNK        -0.1977 
     32 N          28.5621  -49.4487  -57.4919 N.am      8 UNK        -0.4342 
     33 C          27.9889  -50.5912  -57.8930 C.2       8 UNK         0.5039 
     34 O          27.8849  -50.9341  -59.0710 O.2       8 UNK        -0.5547 
     35 CA         27.3969  -51.4787  -56.7878 C.3       7 UNK         0.0281 
     36 CB         28.4879  -52.3470  -56.1392 C.3       7 UNK        -0.1963 
     37 N          26.7148  -50.6826  -55.7625 N.am      7 UNK        -0.4444 
     38 C          25.5185  -50.0992  -55.9287 C.2       7 UNK         0.5104 
     39 O          24.8429  -50.2020  -56.9520 O.2       7 UNK        -0.5100 
     40 CA         24.9927  -49.2364  -54.7677 C.3       6 UNK         0.0396 
     41 CB         24.2054  -50.1002  -53.7700 C.3       6 UNK        -0.1801 
     42 N          26.0556  -48.5194  -54.0596 N.am      6 UNK        -0.4747 
     43 C          26.7494  -47.4906  -54.5693 C.2       6 UNK         0.5012 
     44 O          26.5404  -47.0090  -55.6817 O.2       6 UNK        -0.5003 
     45 CA         27.9042  -46.9388  -53.7119 C.3       5 UNK         0.0782 
     46 C46        27.4039  -45.7955  -52.7952 C.3       11 UNK        -0.0868 
     47 S47        28.7132  -45.1366  -51.7073 S.3       11 UNK        -0.2515 
     48 C48        29.1791  -43.5898  -52.5548 C.3       11 UNK         0.0199 
     49 N          28.6127  -47.9914  -52.9702 N.am      5 UNK        -0.4607 
     50 C          29.2682  -49.0086  -53.5392 C.2       4 UNK         0.5031 
     51 O          29.2624  -49.2326  -54.7519 O.2       4 UNK        -0.5119 
     52 CA         30.0162  -49.9649  -52.5989 C.3       4 UNK         0.0263 
     53 CB         29.1318  -51.1728  -52.2501 C.3       4 UNK        -0.1967 
     54 N          31.2514  -50.4321  -53.2295 N.am      4 UNK        -0.4237 
     55 C          32.3244  -49.6560  -53.4236 C.2       3 UNK         0.4908 
     56 O          32.4429  -48.5212  -52.9551 O.2       3 UNK        -0.5102 
     57 CA         33.4265  -50.2351  -54.3189 C.3       3 UNK         0.0241 
     58 CB         32.9834  -50.2283  -55.7938 C.3       3 UNK        -0.1971 
     59 N          34.6315  -49.4198  -54.1879 N.am      3 UNK        -0.4139 
     60 C          35.8587  -49.8692  -53.9049 C.2       2 UNK         0.5016 
     61 O          36.1372  -51.0622  -53.7731 O.2       2 UNK        -0.5319 
     62 CA         36.9786  -48.8201  -53.7542 C.3       2 UNK         0.0286 
     63 CB         37.9573  -48.9062  -54.9376 C.3       2 UNK        -0.1963 
     64 N          36.4943  -47.4387  -53.6449 N.am      2 UNK        -0.4790 
     65 C          35.9298  -46.9081  -52.5521 C.2       1 UNK         0.5024 
     66 O          35.7494  -47.5371  -51.5062 O.2       1 UNK        -0.4888 
     67 H67        35.3445  -43.7597  -49.0202 H         1 UNK         0.0892 
     68 H68        36.9125  -44.4265  -48.5611 H         1 UNK         0.0892 
     69 H69        36.8113  -42.8099  -49.2649 H         1 UNK         0.0892 
     70 H70        34.5808  -44.7015  -50.9011 H         1 UNK         0.3107 
     71 H71        36.2015  -44.9060  -53.2842 H         1 UNK         0.0773 
     72 H72        33.3797  -46.0338  -52.9232 H         1 UNK         0.0680 
     73 H73        33.6556  -44.3262  -53.1349 H         1 UNK         0.0680 
     74 H74        32.2256  -46.9147  -54.9675 H         1 UNK         0.0650 
     75 H75        32.4730  -46.3534  -56.5980 H         1 UNK         0.0650 
     76 H76        31.0476  -45.4797  -53.3071 H         1 UNK         0.1397 
     77 H77        28.8584  -42.1074  -54.7952 H         1 UNK         0.1363 
     78 H78        31.6380  -44.1584  -57.3363 H         1 UNK         0.1355 
     79 H79        30.5856  -41.1717  -57.1518 H         1 UNK         0.0707 
     80 H80        30.2543  -42.4518  -58.2893 H         1 UNK         0.0707 
     81 H81        26.8358  -42.5289  -59.1124 H         1 UNK         0.1034 
     82 H82        28.1407  -43.5584  -58.6137 H         1 UNK         0.1034 
     83 H83        26.9246  -43.7341  -56.3042 H         1 UNK         0.0482 
     84 H84        25.8879  -41.0785  -57.1071 H         1 UNK         0.3460 
     85 H85        24.1828  -41.1267  -56.7106 H         1 UNK         0.3460 
     86 H86        26.4458  -45.7485  -56.9980 H         1 UNK         0.2989 
     87 H87        24.7289  -47.2765  -58.3369 H         1 UNK         0.0559 
     88 H88        24.1315  -46.9431  -60.7057 H         1 UNK         0.0848 
     89 H89        24.9870  -48.4659  -60.5251 H         1 UNK         0.0848 
     90 H90        25.8137  -47.0602  -61.1961 H         1 UNK         0.0848 
     91 H91        26.6167  -48.2377  -57.7496 H         1 UNK         0.3144 
     92 H92        29.6928  -48.8725  -59.1424 H         1 UNK         0.0727 
     93 H93        29.3665  -46.9226  -56.7942 H         1 UNK         0.0790 
     94 H94        30.4069  -46.6893  -58.1921 H         1 UNK         0.0790 
     95 H95        30.7470  -47.9867  -57.0540 H         1 UNK         0.0790 
     96 H96        28.6812  -49.2947  -56.4912 H         1 UNK         0.3215 
     97 H97        26.6646  -52.1447  -57.2501 H         1 UNK         0.0863 
     98 H98        28.0712  -53.0036  -55.3754 H         1 UNK         0.0808 
     99 H99        29.2699  -51.7444  -55.6768 H         1 UNK         0.0808 
    100 H100       28.9687  -52.9828  -56.8838 H         1 UNK         0.0808 
    101 H101       27.2280  -50.4951  -54.9136 H         1 UNK         0.3118 
    102 H102       24.3081  -48.4967  -55.1889 H         1 UNK         0.0546 
    103 H103       24.8373  -50.8522  -53.2958 H         1 UNK         0.0828 
    104 H104       23.3913  -50.6276  -54.2695 H         1 UNK         0.0828 
    105 H105       23.7589  -49.4913  -52.9837 H         1 UNK         0.0828 
    106 H106       26.2956  -48.8470  -53.1348 H         1 UNK         0.3005 
    107 H107       28.6227  -46.5128  -54.4147 H         1 UNK         0.1257 
    108 H108       26.5922  -46.1462  -52.1548 H         1 UNK         0.0775 
    109 H109       26.9879  -44.9812  -53.3922 H         1 UNK         0.0775 
    110 H110       28.2885  -42.9671  -52.6547 H         1 UNK         0.0840 
    111 H111       29.8662  -43.0383  -51.9119 H         1 UNK         0.0840 
    112 H112       28.6652  -47.8651  -51.9695 H         1 UNK         0.2987 
    113 H113       30.2714  -49.4357  -51.6780 H         1 UNK         0.0785 
    114 H114       28.2113  -50.8557  -51.7581 H         1 UNK         0.0798 
    115 H115       29.6426  -51.8524  -51.5676 H         1 UNK         0.0798 
    116 H116       28.8487  -51.7407  -53.1369 H         1 UNK         0.0798 
    117 H117       31.2170  -51.3375  -53.6742 H         1 UNK         0.3079 
    118 H118       33.6181  -51.2618  -53.9998 H         1 UNK         0.0794 
    119 H119       33.7546  -50.6503  -56.4384 H         1 UNK         0.0786 
    120 H120       32.7716  -49.2181  -56.1459 H         1 UNK         0.0786 
    121 H121       32.0791  -50.8201  -55.9424 H         1 UNK         0.0786 
    122 H122       34.4768  -48.4209  -54.1857 H         1 UNK         0.3032 
    123 H123       37.5242  -49.0668  -52.8403 H         1 UNK         0.1094 
    124 H124       37.4694  -48.6670  -55.8834 H         1 UNK         0.0794 
    125 H125       38.7976  -48.2235  -54.8093 H         1 UNK         0.0794 
    126 H126       38.3719  -49.9112  -55.0305 H         1 UNK         0.0794 
    127 H127       36.5839  -46.8619  -54.4705 H         1 UNK         0.3016 
@<TRIPOS>BOND
     1    1    2 1    
     2    1   67 1    
     3    1   68 1    
     4    1   69 1    
     5    2    3 2    
     6    2    4 am   BACKBONE|DICT|INTERRES
     7    4    5 1    
     8    4   70 1    
     9    5    6 1    
    10    5   65 1    
    11    5   71 1    
    12    6    7 1    
    13    6   72 1    
    14    6   73 1    
    15    7    8 1    
    16    8    9 1    
    17    8   74 1    
    18    8   75 1    
    19    9   10 ar   
    20    9   14 ar   
    21   10   11 ar   
    22   10   76 1    
    23   11   12 ar   
    24   11   48 1    
    25   12   13 ar   
    26   12   77 1    
    27   13   14 ar   
    28   13   15 1    
    29   14   78 1    
    30   15   16 1    
    31   15   79 1    
    32   15   80 1    
    33   16   17 1    
    34   17   18 1    
    35   17   81 1    
    36   17   82 1    
    37   18   19 1    
    38   18   22 1    
    39   18   83 1    
    40   19   20 am   BACKBONE|DICT|INTERRES
    41   19   21 2    
    42   20   84 1    
    43   20   85 1    
    44   22   23 am   BACKBONE|DICT|INTERRES
    45   22   86 1    
    46   23   24 2    
    47   23   25 1    
    48   25   26 1    
    49   25   27 1    
    50   25   87 1    
    51   26   88 1    
    52   26   89 1    
    53   26   90 1    
    54   27   28 am   BACKBONE|DICT|INTERRES
    55   27   91 1    
    56   28   29 2    
    57   28   30 1    
    58   30   31 1    
    59   30   32 1    
    60   30   92 1    
    61   31   93 1    
    62   31   94 1    
    63   31   95 1    
    64   32   33 am   BACKBONE|DICT|INTERRES
    65   32   96 1    
    66   33   34 2    
    67   33   35 1    
    68   35   36 1    
    69   35   37 1    
    70   35   97 1    
    71   36   98 1    
    72   36   99 1    
    73   36  100 1    
    74   37   38 am   BACKBONE|DICT|INTERRES
    75   37  101 1    
    76   38   39 2    
    77   38   40 1    
    78   40   41 1    
    79   40   42 1    
    80   40  102 1    
    81   41  103 1    
    82   41  104 1    
    83   41  105 1    
    84   42   43 am   BACKBONE|DICT|INTERRES
    85   42  106 1    
    86   43   44 2    
    87   43   45 1    
    88   45   46 1    
    89   45   49 1    
    90   45  107 1    
    91   46   47 1    
    92   46  108 1    
    93   46  109 1    
    94   47   48 1    
    95   48  110 1    
    96   48  111 1    
    97   49   50 am   BACKBONE|DICT|INTERRES
    98   49  112 1    
    99   50   51 2    
   100   50   52 1    
   101   52   53 1    
   102   52   54 1    
   103   52  113 1    
   104   53  114 1    
   105   53  115 1    
   106   53  116 1    
   107   54   55 am   BACKBONE|DICT|INTERRES
   108   54  117 1    
   109   55   56 2    
   110   55   57 1    
   111   57   58 1    
   112   57   59 1    
   113   57  118 1    
   114   58  119 1    
   115   58  120 1    
   116   58  121 1    
   117   59   60 am   BACKBONE|DICT|INTERRES
   118   59  122 1    
   119   60   61 2    
   120   60   62 1    
   121   62   63 1    
   122   62   64 1    
   123   62  123 1    
   124   63  124 1    
   125   63  125 1    
   126   63  126 1    
   127   64   65 am   BACKBONE|DICT|INTERRES
   128   64  127 1    
   129   65   66 2    
@<TRIPOS>SUBSTRUCTURE
     1 UNK         1 GROUP             0       ****    0 ROOT    
