@<TRIPOS>MOLECULE
3R134
127   129    1
SMALL
USER_CHARGES


@<TRIPOS>ATOM
      1 CA         33.6977  -44.5068  -50.5379 C.3       0 UNK        -0.1968 
      2 C          34.0712  -44.8256  -51.9779 C.2       0 UNK         0.4852 
      3 O          34.4685  -43.9259  -52.7177 O.2       0 UNK        -0.5359 
      4 N          33.9482  -46.0961  -52.3731 N.am      1 UNK        -0.4300 
      5 CA         34.2595  -46.6227  -53.7017 C.3       1 UNK         0.0863 
      6 C6         33.0395  -46.5456  -54.6637 C.3       11 UNK        -0.0953 
      7 S7         33.4855  -46.0168  -56.3491 S.3       11 UNK        -0.2369 
      8 C8         33.5280  -44.2011  -56.1945 C.3       11 UNK         0.0226 
      9 C9         32.1474  -43.5756  -56.0344 C.ar      11 UNK        -0.0699 
     10 C10        31.6301  -43.3317  -54.7600 C.ar      11 UNK        -0.0804 
     11 C11        30.3804  -42.7301  -54.5943 C.ar      11 UNK        -0.0871 
     12 C12        29.6642  -42.3217  -55.7235 C.ar      11 UNK        -0.1008 
     13 C13        30.1779  -42.5377  -57.0067 C.ar      11 UNK        -0.0735 
     14 C14        31.4108  -43.1831  -57.1558 C.ar      11 UNK        -0.0945 
     15 C15        29.4354  -42.0230  -58.2321 C.3       11 UNK         0.0169 
     16 S16        28.1179  -43.1543  -58.7720 S.3       11 UNK        -0.2669 
     17 C17        26.6901  -42.6145  -57.7647 C.3       11 UNK        -0.0850 
     18 CA         26.3146  -43.6159  -56.6340 C.3       10 UNK         0.0855 
     19 C          25.1857  -43.0786  -55.7052 C.2       10 UNK         0.5543 
     20 N          24.2922  -43.9181  -55.1965 N.am      10 UNK        -0.7343 
     21 O          25.1376  -41.8870  -55.4102 O.2       10 UNK        -0.5027 
     22 N          26.1162  -44.9945  -57.1090 N.am      10 UNK        -0.4495 
     23 C          25.2324  -45.4255  -58.0194 C.2       10 UNK         0.4903 
     24 O          24.4012  -44.7037  -58.5725 O.2       10 UNK        -0.4860 
     25 CA         25.2914  -46.9307  -58.3512 C.3       9 UNK         0.0227 
     26 CB         24.5931  -47.2946  -59.6788 C.3       9 UNK        -0.1964 
     27 N          26.6622  -47.4533  -58.2942 N.am      9 UNK        -0.4231 
     28 C          27.7014  -47.1417  -59.0866 C.2       9 UNK         0.5014 
     29 O          27.6098  -46.4794  -60.1204 O.2       9 UNK        -0.5270 
     30 CA         29.0925  -47.6364  -58.6420 C.3       8 UNK         0.0284 
     31 CB         29.9450  -46.4608  -58.1328 C.3       8 UNK        -0.1977 
     32 N          29.0238  -48.6583  -57.5945 N.am      8 UNK        -0.4342 
     33 C          28.7651  -49.9545  -57.8124 C.2       8 UNK         0.5039 
     34 O          28.6489  -50.4521  -58.9327 O.2       8 UNK        -0.5547 
     35 CA         28.5717  -50.8391  -56.5705 C.3       7 UNK         0.0281 
     36 CB         29.9011  -51.4810  -56.1518 C.3       7 UNK        -0.1963 
     37 N          27.9945  -50.1049  -55.4389 N.am      7 UNK        -0.4444 
     38 C          26.7071  -49.7300  -55.3761 C.2       7 UNK         0.5104 
     39 O          25.8813  -49.9873  -56.2513 O.2       7 UNK        -0.5100 
     40 CA         26.2609  -48.8933  -54.1627 C.3       6 UNK         0.0396 
     41 CB         25.7612  -49.8106  -53.0360 C.3       6 UNK        -0.1801 
     42 N          27.2986  -48.0041  -53.6374 N.am      6 UNK        -0.4747 
     43 C          27.8998  -47.0197  -54.3219 C.2       6 UNK         0.5012 
     44 O          27.6164  -46.7289  -55.4832 O.2       6 UNK        -0.5003 
     45 CA         29.0420  -46.2674  -53.6087 C.3       5 UNK         0.0782 
     46 C46        28.4960  -44.9702  -52.9626 C.3       11 UNK        -0.0868 
     47 S47        29.7998  -43.9777  -52.1593 S.3       11 UNK        -0.2515 
     48 C48        29.8327  -42.4751  -53.1951 C.3       11 UNK         0.0199 
     49 N          29.7692  -47.1082  -52.6425 N.am      5 UNK        -0.4607 
     50 C          30.3912  -48.2605  -52.9282 C.2       4 UNK         0.5031 
     51 O          30.3825  -48.7711  -54.0504 O.2       4 UNK        -0.5119 
     52 CA         31.1400  -48.9296  -51.7605 C.3       4 UNK         0.0263 
     53 CB         30.1636  -49.4373  -50.6783 C.3       4 UNK        -0.1967 
     54 N          32.0619  -49.9869  -52.2021 N.am      4 UNK        -0.4237 
     55 C          31.7670  -51.1925  -52.7188 C.2       3 UNK         0.4908 
     56 O          30.6301  -51.6605  -52.7926 O.2       3 UNK        -0.5102 
     57 CA         32.9617  -51.9936  -53.2639 C.3       3 UNK         0.0241 
     58 CB         32.5651  -53.2027  -54.1336 C.3       3 UNK        -0.1971 
     59 N          33.8440  -51.1022  -54.0169 N.am      3 UNK        -0.4139 
     60 C          35.1803  -51.1488  -54.0003 C.2       2 UNK         0.5016 
     61 O          35.8303  -52.0429  -53.4565 O.2       2 UNK        -0.5319 
     62 CA         35.9278  -49.9795  -54.6722 C.3       2 UNK         0.0286 
     63 CB         36.2442  -50.3224  -56.1372 C.3       2 UNK        -0.1963 
     64 N          35.2578  -48.6687  -54.6195 N.am      2 UNK        -0.4790 
     65 C          34.7830  -48.0594  -53.5227 C.2       1 UNK         0.5024 
     66 O          34.7231  -48.5935  -52.4102 O.2       1 UNK        -0.4888 
     67 H67        33.3914  -45.3967  -49.9882 H         1 UNK         0.0892 
     68 H68        34.5462  -44.0620  -50.0189 H         1 UNK         0.0892 
     69 H69        32.8723  -43.7954  -50.5164 H         1 UNK         0.0892 
     70 H70        33.7439  -46.8186  -51.6948 H         1 UNK         0.3107 
     71 H71        35.0911  -46.0399  -54.1043 H         1 UNK         0.0773 
     72 H72        32.5407  -47.5103  -54.7566 H         1 UNK         0.0680 
     73 H73        32.2724  -45.8782  -54.2765 H         1 UNK         0.0680 
     74 H74        34.0093  -43.7928  -57.0843 H         1 UNK         0.0650 
     75 H75        34.1692  -43.9239  -55.3575 H         1 UNK         0.0650 
     76 H76        32.2021  -43.6094  -53.8875 H         1 UNK         0.1397 
     77 H77        28.7156  -41.8169  -55.6057 H         1 UNK         0.1363 
     78 H78        31.8135  -43.3523  -58.1450 H         1 UNK         0.1355 
     79 H79        29.0295  -41.0291  -58.0392 H         1 UNK         0.0707 
     80 H80        30.1347  -41.8987  -59.0603 H         1 UNK         0.0707 
     81 H81        25.8415  -42.4680  -58.4343 H         1 UNK         0.1034 
     82 H82        26.9007  -41.6293  -57.3466 H         1 UNK         0.1034 
     83 H83        27.1813  -43.6878  -55.9782 H         1 UNK         0.0482 
     84 H84        24.3274  -44.8978  -55.4262 H         1 UNK         0.3460 
     85 H85        23.5711  -43.5648  -54.5876 H         1 UNK         0.3460 
     86 H86        26.7256  -45.6816  -56.6708 H         1 UNK         0.2989 
     87 H87        24.7499  -47.4360  -57.5502 H         1 UNK         0.0559 
     88 H88        25.0201  -46.7557  -60.5249 H         1 UNK         0.0848 
     89 H89        23.5322  -47.0450  -59.6411 H         1 UNK         0.0848 
     90 H90        24.6673  -48.3619  -59.8869 H         1 UNK         0.0848 
     91 H91        26.8712  -48.0061  -57.4741 H         1 UNK         0.3144 
     92 H92        29.5873  -48.0609  -59.5182 H         1 UNK         0.0727 
     93 H93        30.9413  -46.7897  -57.8385 H         1 UNK         0.0790 
     94 H94        29.4886  -45.9632  -57.2763 H         1 UNK         0.0790 
     95 H95        30.0714  -45.7059  -58.9100 H         1 UNK         0.0790 
     96 H96        29.1026  -48.3367  -56.6390 H         1 UNK         0.3215 
     97 H97        27.8838  -51.6424  -56.8443 H         1 UNK         0.0863 
     98 H98        30.6355  -50.7355  -55.8457 H         1 UNK         0.0808 
     99 H99        30.3366  -52.0505  -56.9739 H         1 UNK         0.0808 
    100 H100       29.7554  -52.1716  -55.3214 H         1 UNK         0.0808 
    101 H101       28.6346  -49.8198  -54.7046 H         1 UNK         0.3118 
    102 H102       25.4277  -48.2662  -54.4869 H         1 UNK         0.0546 
    103 H103       25.3511  -49.2349  -52.2061 H         1 UNK         0.0828 
    104 H104       26.5595  -50.4433  -52.6456 H         1 UNK         0.0828 
    105 H105       24.9683  -50.4698  -53.3924 H         1 UNK         0.0828 
    106 H106       27.6067  -48.1759  -52.6913 H         1 UNK         0.3005 
    107 H107       29.7545  -45.9830  -54.3868 H         1 UNK         0.1257 
    108 H108       27.7438  -45.2058  -52.2072 H         1 UNK         0.0775 
    109 H109       27.9895  -44.3554  -53.7092 H         1 UNK         0.0775 
    110 H110       28.8292  -42.0483  -53.2368 H         1 UNK         0.0840 
    111 H111       30.4617  -41.7294  -52.7070 H         1 UNK         0.0840 
    112 H112       29.8283  -46.7367  -51.7052 H         1 UNK         0.2987 
    113 H113       31.7706  -48.1629  -51.3085 H         1 UNK         0.0785 
    114 H114       30.6926  -49.9607  -49.8819 H         1 UNK         0.0798 
    115 H115       29.6239  -48.6112  -50.2143 H         1 UNK         0.0798 
    116 H116       29.4164  -50.1184  -51.0867 H         1 UNK         0.0798 
    117 H117       33.0413  -49.7195  -52.1942 H         1 UNK         0.3079 
    118 H118       33.4883  -52.3699  -52.3840 H         1 UNK         0.0794 
    119 H119       31.8747  -53.8620  -53.6060 H         1 UNK         0.0786 
    120 H120       33.4390  -53.7980  -54.3983 H         1 UNK         0.0786 
    121 H121       32.0846  -52.8919  -55.0602 H         1 UNK         0.0786 
    122 H122       33.3962  -50.3316  -54.4940 H         1 UNK         0.3032 
    123 H123       36.8744  -49.8706  -54.1382 H         1 UNK         0.1094 
    124 H124       35.3375  -50.3942  -56.7394 H         1 UNK         0.0794 
    125 H125       36.8915  -49.5719  -56.5912 H         1 UNK         0.0794 
    126 H126       36.7621  -51.2799  -56.2125 H         1 UNK         0.0794 
    127 H127       35.2271  -48.1546  -55.4898 H         1 UNK         0.3016 
@<TRIPOS>BOND
     1    1    2 1    
     2    1   67 1    
     3    1   68 1    
     4    1   69 1    
     5    2    3 2    
     6    2    4 am   BACKBONE|DICT|INTERRES
     7    4    5 1    
     8    4   70 1    
     9    5    6 1    
    10    5   65 1    
    11    5   71 1    
    12    6    7 1    
    13    6   72 1    
    14    6   73 1    
    15    7    8 1    
    16    8    9 1    
    17    8   74 1    
    18    8   75 1    
    19    9   10 ar   
    20    9   14 ar   
    21   10   11 ar   
    22   10   76 1    
    23   11   12 ar   
    24   11   48 1    
    25   12   13 ar   
    26   12   77 1    
    27   13   14 ar   
    28   13   15 1    
    29   14   78 1    
    30   15   16 1    
    31   15   79 1    
    32   15   80 1    
    33   16   17 1    
    34   17   18 1    
    35   17   81 1    
    36   17   82 1    
    37   18   19 1    
    38   18   22 1    
    39   18   83 1    
    40   19   20 am   BACKBONE|DICT|INTERRES
    41   19   21 2    
    42   20   84 1    
    43   20   85 1    
    44   22   23 am   BACKBONE|DICT|INTERRES
    45   22   86 1    
    46   23   24 2    
    47   23   25 1    
    48   25   26 1    
    49   25   27 1    
    50   25   87 1    
    51   26   88 1    
    52   26   89 1    
    53   26   90 1    
    54   27   28 am   BACKBONE|DICT|INTERRES
    55   27   91 1    
    56   28   29 2    
    57   28   30 1    
    58   30   31 1    
    59   30   32 1    
    60   30   92 1    
    61   31   93 1    
    62   31   94 1    
    63   31   95 1    
    64   32   33 am   BACKBONE|DICT|INTERRES
    65   32   96 1    
    66   33   34 2    
    67   33   35 1    
    68   35   36 1    
    69   35   37 1    
    70   35   97 1    
    71   36   98 1    
    72   36   99 1    
    73   36  100 1    
    74   37   38 am   BACKBONE|DICT|INTERRES
    75   37  101 1    
    76   38   39 2    
    77   38   40 1    
    78   40   41 1    
    79   40   42 1    
    80   40  102 1    
    81   41  103 1    
    82   41  104 1    
    83   41  105 1    
    84   42   43 am   BACKBONE|DICT|INTERRES
    85   42  106 1    
    86   43   44 2    
    87   43   45 1    
    88   45   46 1    
    89   45   49 1    
    90   45  107 1    
    91   46   47 1    
    92   46  108 1    
    93   46  109 1    
    94   47   48 1    
    95   48  110 1    
    96   48  111 1    
    97   49   50 am   BACKBONE|DICT|INTERRES
    98   49  112 1    
    99   50   51 2    
   100   50   52 1    
   101   52   53 1    
   102   52   54 1    
   103   52  113 1    
   104   53  114 1    
   105   53  115 1    
   106   53  116 1    
   107   54   55 am   BACKBONE|DICT|INTERRES
   108   54  117 1    
   109   55   56 2    
   110   55   57 1    
   111   57   58 1    
   112   57   59 1    
   113   57  118 1    
   114   58  119 1    
   115   58  120 1    
   116   58  121 1    
   117   59   60 am   BACKBONE|DICT|INTERRES
   118   59  122 1    
   119   60   61 2    
   120   60   62 1    
   121   62   63 1    
   122   62   64 1    
   123   62  123 1    
   124   63  124 1    
   125   63  125 1    
   126   63  126 1    
   127   64   65 am   BACKBONE|DICT|INTERRES
   128   64  127 1    
   129   65   66 2    
@<TRIPOS>SUBSTRUCTURE
     1 UNK         1 GROUP             0       ****    0 ROOT    
