@<TRIPOS>MOLECULE
3R134
127   129    1
SMALL
USER_CHARGES


@<TRIPOS>ATOM
      1 CA         30.4200  -44.6275  -52.4091 C.3       0 UNK        -0.1968 
      2 C          31.7522  -44.8017  -51.6935 C.2       0 UNK         0.4852 
      3 O          31.7685  -45.1375  -50.5089 O.2       0 UNK        -0.5359 
      4 N          32.8678  -44.5727  -52.4018 N.am      1 UNK        -0.4300 
      5 CA         34.2373  -44.6969  -51.8834 C.3       1 UNK         0.0863 
      6 C6         35.3042  -44.0886  -52.8376 C.3       11 UNK        -0.0953 
      7 S7         35.3958  -42.2665  -53.0305 S.3       11 UNK        -0.2369 
      8 C8         33.6965  -41.6005  -52.9209 C.3       11 UNK         0.0226 
      9 C9         32.7441  -41.9484  -54.0697 C.ar      11 UNK        -0.0699 
     10 C10        33.0909  -42.8034  -55.1240 C.ar      11 UNK        -0.0804 
     11 C11        32.1456  -43.1768  -56.0799 C.ar      11 UNK        -0.0871 
     12 C12        30.8658  -42.6216  -56.0337 C.ar      11 UNK        -0.1008 
     13 C13        30.5004  -41.7431  -55.0057 C.ar      11 UNK        -0.0735 
     14 C14        31.4485  -41.4231  -54.0285 C.ar      11 UNK        -0.0945 
     15 C15        29.1002  -41.1347  -54.8750 C.3       11 UNK         0.0169 
     16 S16        27.9304  -41.4675  -56.2394 S.3       11 UNK        -0.2669 
     17 C17        27.4785  -43.2080  -55.9203 C.3       11 UNK        -0.0850 
     18 CA         26.9455  -43.9258  -57.1868 C.3       10 UNK         0.0855 
     19 C          28.0506  -44.2001  -58.2376 C.2       10 UNK         0.5543 
     20 N          28.0221  -43.5138  -59.3712 N.am      10 UNK        -0.7343 
     21 O          28.9499  -45.0078  -58.0213 O.2       10 UNK        -0.5027 
     22 N          26.3119  -45.1937  -56.8254 N.am      10 UNK        -0.4495 
     23 C          24.9961  -45.4290  -56.7905 C.2       10 UNK         0.4903 
     24 O          24.1379  -44.5677  -56.9910 O.2       10 UNK        -0.4860 
     25 CA         24.5766  -46.8790  -56.4790 C.3       9 UNK         0.0227 
     26 CB         23.0854  -47.1584  -56.7627 C.3       9 UNK        -0.1964 
     27 N          25.4349  -47.8646  -57.1452 N.am      9 UNK        -0.4231 
     28 C          25.6217  -48.0363  -58.4638 C.2       9 UNK         0.5014 
     29 O          25.0124  -47.4099  -59.3322 O.2       9 UNK        -0.5270 
     30 CA         26.6840  -49.0640  -58.9038 C.3       8 UNK         0.0284 
     31 CB         27.9050  -48.3423  -59.4981 C.3       8 UNK        -0.1977 
     32 N          27.1322  -49.9539  -57.8277 N.am      8 UNK        -0.4342 
     33 C          26.3947  -50.9381  -57.2947 C.2       8 UNK         0.5039 
     34 O          25.2800  -51.2590  -57.7084 O.2       8 UNK        -0.5547 
     35 CA         26.9802  -51.6614  -56.0702 C.3       7 UNK         0.0281 
     36 CB         27.9301  -52.7866  -56.5105 C.3       7 UNK        -0.1963 
     37 N          27.6747  -50.7584  -55.1460 N.am      7 UNK        -0.4444 
     38 C          27.0914  -49.7672  -54.4555 C.2       7 UNK         0.5104 
     39 O          25.8868  -49.5200  -54.4992 O.2       7 UNK        -0.5100 
     40 CA         28.0124  -48.8584  -53.6209 C.3       6 UNK         0.0396 
     41 CB         28.4130  -49.5336  -52.3008 C.3       6 UNK        -0.1801 
     42 N          29.2090  -48.4465  -54.3588 N.am      6 UNK        -0.4747 
     43 C          29.1858  -47.6939  -55.4701 C.2       6 UNK         0.5012 
     44 O          28.1559  -47.2193  -55.9482 O.2       6 UNK        -0.5003 
     45 CA         30.5319  -47.4653  -56.1824 C.3       5 UNK         0.0782 
     46 C46        31.2623  -46.2519  -55.5635 C.3       11 UNK        -0.0868 
     47 S47        32.8397  -45.8511  -56.3916 S.3       11 UNK        -0.2515 
     48 C48        32.4938  -44.2183  -57.1359 C.3       11 UNK         0.0199 
     49 N          31.3449  -48.6853  -56.1678 N.am      5 UNK        -0.4607 
     50 C          31.0488  -49.7991  -56.8509 C.2       4 UNK         0.5031 
     51 O          30.0703  -49.9089  -57.5889 O.2       4 UNK        -0.5119 
     52 CA         31.9735  -51.0091  -56.6358 C.3       4 UNK         0.0263 
     53 CB         33.2560  -50.8670  -57.4709 C.3       4 UNK        -0.1967 
     54 N          32.3214  -51.2102  -55.2264 N.am      4 UNK        -0.4237 
     55 C          31.4367  -51.5109  -54.2644 C.2       3 UNK         0.4908 
     56 O          30.2426  -51.7126  -54.4758 O.2       3 UNK        -0.5102 
     57 CA         31.9514  -51.5580  -52.8154 C.3       3 UNK         0.0241 
     58 CB         32.3844  -52.9862  -52.4485 C.3       3 UNK        -0.1971 
     59 N          33.0460  -50.6252  -52.5279 N.am      3 UNK        -0.4139 
     60 C          33.0020  -49.2964  -52.6965 C.2       2 UNK         0.5016 
     61 O          32.0326  -48.6878  -53.1626 O.2       2 UNK        -0.5319 
     62 CA         34.2768  -48.5346  -52.3182 C.3       2 UNK         0.0286 
     63 CB         35.4285  -48.8583  -53.2893 C.3       2 UNK        -0.1963 
     64 N          34.0088  -47.1022  -52.3575 N.am      2 UNK        -0.4790 
     65 C          34.6120  -46.1713  -51.6087 C.2       1 UNK         0.5024 
     66 O          35.4597  -46.4306  -50.7531 O.2       1 UNK        -0.4888 
     67 H67        29.7822  -43.9408  -51.8533 H         1 UNK         0.0892 
     68 H68        30.5462  -44.2268  -53.4136 H         1 UNK         0.0892 
     69 H69        29.9064  -45.5858  -52.4856 H         1 UNK         0.0892 
     70 H70        32.7918  -44.2580  -53.3597 H         1 UNK         0.3107 
     71 H71        34.2877  -44.1677  -50.9295 H         1 UNK         0.0773 
     72 H72        35.2189  -44.5398  -53.8273 H         1 UNK         0.0680 
     73 H73        36.3024  -44.3689  -52.4937 H         1 UNK         0.0680 
     74 H74        33.7811  -40.5139  -52.8746 H         1 UNK         0.0650 
     75 H75        33.2553  -41.9045  -51.9711 H         1 UNK         0.0650 
     76 H76        34.0819  -43.2229  -55.1997 H         1 UNK         0.1397 
     77 H77        30.1563  -42.9026  -56.7955 H         1 UNK         0.1363 
     78 H78        31.1700  -40.7644  -53.2166 H         1 UNK         0.1355 
     79 H79        29.2045  -40.0519  -54.7903 H         1 UNK         0.0707 
     80 H80        28.6516  -41.4729  -53.9397 H         1 UNK         0.0707 
     81 H81        28.3199  -43.7546  -55.4907 H         1 UNK         0.1034 
     82 H82        26.7064  -43.2020  -55.1493 H         1 UNK         0.1034 
     83 H83        26.1986  -43.2781  -57.6509 H         1 UNK         0.0482 
     84 H84        27.3004  -42.8333  -59.5502 H         1 UNK         0.3460 
     85 H85        28.7409  -43.6758  -60.0584 H         1 UNK         0.3460 
     86 H86        26.9584  -45.9631  -56.6557 H         1 UNK         0.2989 
     87 H87        24.7383  -47.0164  -55.4089 H         1 UNK         0.0559 
     88 H88        22.4457  -46.5109  -56.1618 H         1 UNK         0.0848 
     89 H89        22.8226  -48.1879  -56.5195 H         1 UNK         0.0848 
     90 H90        22.8309  -46.9847  -57.8086 H         1 UNK         0.0848 
     91 H91        26.0043  -48.4219  -56.5205 H         1 UNK         0.3144 
     92 H92        26.2362  -49.6779  -59.6879 H         1 UNK         0.0727 
     93 H93        28.3968  -47.7105  -58.7578 H         1 UNK         0.0790 
     94 H94        27.6156  -47.7001  -60.3310 H         1 UNK         0.0790 
     95 H95        28.6415  -49.0512  -59.8767 H         1 UNK         0.0790 
     96 H96        28.0787  -49.8119  -57.4847 H         1 UNK         0.3215 
     97 H97        26.1477  -52.1125  -55.5261 H         1 UNK         0.0863 
     98 H98        28.2775  -53.3681  -55.6563 H         1 UNK         0.0808 
     99 H99        28.8076  -52.3953  -57.0266 H         1 UNK         0.0808 
    100 H100       27.4303  -53.4772  -57.1910 H         1 UNK         0.0808 
    101 H101       28.6682  -50.9336  -55.0023 H         1 UNK         0.3118 
    102 H102       27.4537  -47.9525  -53.3760 H         1 UNK         0.0546 
    103 H103       28.9157  -50.4852  -52.4677 H         1 UNK         0.0828 
    104 H104       27.5332  -49.7375  -51.6892 H         1 UNK         0.0828 
    105 H105       29.0777  -48.8996  -51.7135 H         1 UNK         0.0828 
    106 H106       30.1072  -48.7677  -54.0116 H         1 UNK         0.3005 
    107 H107       30.3067  -47.2268  -57.2245 H         1 UNK         0.1257 
    108 H108       30.6069  -45.3809  -55.5935 H         1 UNK         0.0775 
    109 H109       31.4785  -46.4334  -54.5104 H         1 UNK         0.0775 
    110 H110       33.3711  -43.8870  -57.6930 H         1 UNK         0.0840 
    111 H111       31.6880  -44.3243  -57.8643 H         1 UNK         0.0840 
    112 H112       32.1320  -48.6872  -55.5350 H         1 UNK         0.2987 
    113 H113       31.4392  -51.8980  -56.9783 H         1 UNK         0.0785 
    114 H114       33.0188  -50.7317  -58.5272 H         1 UNK         0.0798 
    115 H115       33.8809  -51.7568  -57.3928 H         1 UNK         0.0798 
    116 H116       33.8520  -50.0085  -57.1585 H         1 UNK         0.0798 
    117 H117       33.2858  -51.0690  -54.9650 H         1 UNK         0.3079 
    118 H118       31.1186  -51.2809  -52.1671 H         1 UNK         0.0794 
    119 H119       32.6470  -53.0637  -51.3932 H         1 UNK         0.0786 
    120 H120       33.2446  -53.3120  -53.0347 H         1 UNK         0.0786 
    121 H121       31.5773  -53.6976  -52.6311 H         1 UNK         0.0786 
    122 H122       33.8881  -51.0331  -52.1474 H         1 UNK         0.3032 
    123 H123       34.5534  -48.8275  -51.3025 H         1 UNK         0.1094 
    124 H124       35.1737  -48.5951  -54.3169 H         1 UNK         0.0794 
    125 H125       36.3347  -48.3138  -53.0230 H         1 UNK         0.0794 
    126 H126       35.6801  -49.9193  -53.2744 H         1 UNK         0.0794 
    127 H127       33.2568  -46.8329  -52.9781 H         1 UNK         0.3016 
@<TRIPOS>BOND
     1    1    2 1    
     2    1   67 1    
     3    1   68 1    
     4    1   69 1    
     5    2    3 2    
     6    2    4 am   BACKBONE|DICT|INTERRES
     7    4    5 1    
     8    4   70 1    
     9    5    6 1    
    10    5   65 1    
    11    5   71 1    
    12    6    7 1    
    13    6   72 1    
    14    6   73 1    
    15    7    8 1    
    16    8    9 1    
    17    8   74 1    
    18    8   75 1    
    19    9   10 ar   
    20    9   14 ar   
    21   10   11 ar   
    22   10   76 1    
    23   11   12 ar   
    24   11   48 1    
    25   12   13 ar   
    26   12   77 1    
    27   13   14 ar   
    28   13   15 1    
    29   14   78 1    
    30   15   16 1    
    31   15   79 1    
    32   15   80 1    
    33   16   17 1    
    34   17   18 1    
    35   17   81 1    
    36   17   82 1    
    37   18   19 1    
    38   18   22 1    
    39   18   83 1    
    40   19   20 am   BACKBONE|DICT|INTERRES
    41   19   21 2    
    42   20   84 1    
    43   20   85 1    
    44   22   23 am   BACKBONE|DICT|INTERRES
    45   22   86 1    
    46   23   24 2    
    47   23   25 1    
    48   25   26 1    
    49   25   27 1    
    50   25   87 1    
    51   26   88 1    
    52   26   89 1    
    53   26   90 1    
    54   27   28 am   BACKBONE|DICT|INTERRES
    55   27   91 1    
    56   28   29 2    
    57   28   30 1    
    58   30   31 1    
    59   30   32 1    
    60   30   92 1    
    61   31   93 1    
    62   31   94 1    
    63   31   95 1    
    64   32   33 am   BACKBONE|DICT|INTERRES
    65   32   96 1    
    66   33   34 2    
    67   33   35 1    
    68   35   36 1    
    69   35   37 1    
    70   35   97 1    
    71   36   98 1    
    72   36   99 1    
    73   36  100 1    
    74   37   38 am   BACKBONE|DICT|INTERRES
    75   37  101 1    
    76   38   39 2    
    77   38   40 1    
    78   40   41 1    
    79   40   42 1    
    80   40  102 1    
    81   41  103 1    
    82   41  104 1    
    83   41  105 1    
    84   42   43 am   BACKBONE|DICT|INTERRES
    85   42  106 1    
    86   43   44 2    
    87   43   45 1    
    88   45   46 1    
    89   45   49 1    
    90   45  107 1    
    91   46   47 1    
    92   46  108 1    
    93   46  109 1    
    94   47   48 1    
    95   48  110 1    
    96   48  111 1    
    97   49   50 am   BACKBONE|DICT|INTERRES
    98   49  112 1    
    99   50   51 2    
   100   50   52 1    
   101   52   53 1    
   102   52   54 1    
   103   52  113 1    
   104   53  114 1    
   105   53  115 1    
   106   53  116 1    
   107   54   55 am   BACKBONE|DICT|INTERRES
   108   54  117 1    
   109   55   56 2    
   110   55   57 1    
   111   57   58 1    
   112   57   59 1    
   113   57  118 1    
   114   58  119 1    
   115   58  120 1    
   116   58  121 1    
   117   59   60 am   BACKBONE|DICT|INTERRES
   118   59  122 1    
   119   60   61 2    
   120   60   62 1    
   121   62   63 1    
   122   62   64 1    
   123   62  123 1    
   124   63  124 1    
   125   63  125 1    
   126   63  126 1    
   127   64   65 am   BACKBONE|DICT|INTERRES
   128   64  127 1    
   129   65   66 2    
@<TRIPOS>SUBSTRUCTURE
     1 UNK         1 GROUP             0       ****    0 ROOT    
