@<TRIPOS>MOLECULE
3R134
127   129    1
SMALL
USER_CHARGES


@<TRIPOS>ATOM
      1 CA         31.0264  -47.0820  -47.5908 C.3       0 UNK        -0.1968 
      2 C          31.5462  -46.7364  -48.9787 C.2       0 UNK         0.4852 
      3 O          31.0924  -47.3253  -49.9601 O.2       0 UNK        -0.5359 
      4 N          32.4883  -45.7848  -49.0611 N.am      1 UNK        -0.4300 
      5 CA         33.1623  -45.3287  -50.2850 C.3       1 UNK         0.0863 
      6 C6         32.1838  -44.6397  -51.2935 C.3       11 UNK        -0.0953 
      7 S7         32.6930  -42.9429  -51.7255 S.3       11 UNK        -0.2369 
      8 C8         33.4436  -43.1374  -53.3796 C.3       11 UNK         0.0226 
      9 C9         32.5023  -43.5262  -54.5240 C.ar      11 UNK        -0.0699 
     10 C10        33.0775  -43.8906  -55.7453 C.ar      11 UNK        -0.0804 
     11 C11        32.2839  -44.2300  -56.8445 C.ar      11 UNK        -0.0871 
     12 C12        30.8927  -44.2140  -56.7145 C.ar      11 UNK        -0.1008 
     13 C13        30.2963  -43.8495  -55.5048 C.ar      11 UNK        -0.0735 
     14 C14        31.1040  -43.5011  -54.4167 C.ar      11 UNK        -0.0945 
     15 C15        28.7809  -43.8547  -55.3613 C.3       11 UNK         0.0169 
     16 S16        28.0304  -42.2838  -55.8905 S.3       11 UNK        -0.2669 
     17 C17        27.7045  -42.5926  -57.6627 C.3       11 UNK        -0.0850 
     18 CA         26.2272  -42.9867  -57.9363 C.3       10 UNK         0.0855 
     19 C          25.9096  -43.0017  -59.4619 C.2       10 UNK         0.5543 
     20 N          25.3678  -44.0729  -60.0313 N.am      10 UNK        -0.7343 
     21 O          26.1518  -42.0104  -60.1459 O.2       10 UNK        -0.5027 
     22 N          25.8625  -44.2304  -57.2392 N.am      10 UNK        -0.4495 
     23 C          24.6364  -44.5376  -56.8009 C.2       10 UNK         0.4903 
     24 O          23.6723  -43.7733  -56.8686 O.2       10 UNK        -0.4860 
     25 CA         24.4689  -45.9451  -56.1917 C.3       9 UNK         0.0227 
     26 CB         22.9936  -46.3921  -56.1163 C.3       9 UNK        -0.1964 
     27 N          25.2858  -46.9738  -56.8531 N.am      9 UNK        -0.4231 
     28 C          25.2498  -47.3275  -58.1501 C.2       9 UNK         0.5014 
     29 O          24.5282  -46.7755  -58.9823 O.2       9 UNK        -0.5270 
     30 CA         26.1895  -48.4528  -58.6279 C.3       8 UNK         0.0284 
     31 CB         27.1988  -47.9079  -59.6536 C.3       8 UNK        -0.1977 
     32 N          26.9131  -49.1130  -57.5367 N.am      8 UNK        -0.4342 
     33 C          26.3846  -50.0532  -56.7368 C.2       8 UNK         0.5039 
     34 O          25.2554  -50.5183  -56.8967 O.2       8 UNK        -0.5547 
     35 CA         27.2261  -50.5514  -55.5420 C.3       7 UNK         0.0281 
     36 CB         27.8722  -51.9064  -55.8731 C.3       7 UNK        -0.1963 
     37 N          28.2721  -49.6279  -55.0944 N.am      7 UNK        -0.4444 
     38 C          28.0933  -48.3558  -54.7113 C.2       7 UNK         0.5104 
     39 O          26.9924  -47.8119  -54.6217 O.2       7 UNK        -0.5100 
     40 CA         29.3657  -47.5262  -54.4752 C.3       6 UNK         0.0396 
     41 CB         29.7930  -47.6081  -53.0051 C.3       6 UNK        -0.1801 
     42 N          30.4868  -47.9088  -55.3413 N.am      6 UNK        -0.4747 
     43 C          30.4700  -47.9349  -56.6838 C.2       6 UNK         0.5012 
     44 O          29.4803  -47.6379  -57.3528 O.2       6 UNK        -0.5003 
     45 CA         31.7387  -48.4487  -57.3925 C.3       5 UNK         0.0782 
     46 C46        32.8078  -47.3467  -57.5756 C.3       11 UNK        -0.0868 
     47 S47        32.3544  -46.1585  -58.8820 S.3       11 UNK        -0.2515 
     48 C48        32.9406  -44.5844  -58.1748 C.3       11 UNK         0.0199 
     49 N          32.2877  -49.5912  -56.6639 N.am      5 UNK        -0.4607 
     50 C          31.9588  -50.8694  -56.8835 C.2       4 UNK         0.5031 
     51 O          31.2041  -51.2365  -57.7838 O.2       4 UNK        -0.5119 
     52 CA         32.5714  -51.9229  -55.9417 C.3       4 UNK         0.0263 
     53 CB         33.8445  -52.5196  -56.5629 C.3       4 UNK        -0.1967 
     54 N          32.8821  -51.4103  -54.6033 N.am      4 UNK        -0.4237 
     55 C          31.9628  -51.0226  -53.7086 C.2       3 UNK         0.4908 
     56 O          30.7486  -51.0621  -53.9130 O.2       3 UNK        -0.5102 
     57 CA         32.4868  -50.4645  -52.3719 C.3       3 UNK         0.0241 
     58 CB         32.8237  -51.6143  -51.4088 C.3       3 UNK        -0.1971 
     59 N          33.6334  -49.5457  -52.4543 N.am      3 UNK        -0.4139 
     60 C          33.7606  -48.5021  -53.2865 C.2       2 UNK         0.5016 
     61 O          33.0001  -48.2680  -54.2244 O.2       2 UNK        -0.5319 
     62 CA         34.8777  -47.4958  -52.9788 C.3       2 UNK         0.0286 
     63 CB         35.5001  -46.9221  -54.2650 C.3       2 UNK        -0.1963 
     64 N          34.2866  -46.4031  -52.2087 N.am      2 UNK        -0.4790 
     65 C          34.0383  -46.4532  -50.8941 C.2       1 UNK         0.5024 
     66 O          34.4865  -47.3445  -50.1670 O.2       1 UNK        -0.4888 
     67 H67        31.5001  -46.4808  -46.8149 H         1 UNK         0.0892 
     68 H68        29.9510  -46.9135  -47.5410 H         1 UNK         0.0892 
     69 H69        31.2177  -48.1319  -47.3707 H         1 UNK         0.0892 
     70 H70        32.8317  -45.3666  -48.2077 H         1 UNK         0.3107 
     71 H71        33.8804  -44.5862  -49.9337 H         1 UNK         0.0773 
     72 H72        31.1932  -44.5375  -50.8479 H         1 UNK         0.0680 
     73 H73        32.0061  -45.2247  -52.1958 H         1 UNK         0.0680 
     74 H74        34.2601  -43.8563  -53.3120 H         1 UNK         0.0650 
     75 H75        33.9061  -42.1846  -53.6409 H         1 UNK         0.0650 
     76 H76        34.1548  -43.8963  -55.8434 H         1 UNK         0.1397 
     77 H77        30.2779  -44.4941  -57.5577 H         1 UNK         0.1363 
     78 H78        30.6307  -43.2101  -53.4902 H         1 UNK         0.1355 
     79 H79        28.5094  -44.0335  -54.3197 H         1 UNK         0.0707 
     80 H80        28.3527  -44.6812  -55.9288 H         1 UNK         0.0707 
     81 H81        27.9569  -41.6733  -58.1949 H         1 UNK         0.1034 
     82 H82        28.3822  -43.3527  -58.0506 H         1 UNK         0.1034 
     83 H83        25.6080  -42.1853  -57.5287 H         1 UNK         0.0482 
     84 H84        25.1236  -44.8951  -59.4911 H         1 UNK         0.3460 
     85 H85        25.1688  -44.0512  -61.0186 H         1 UNK         0.3460 
     86 H86        26.5838  -44.9309  -57.1685 H         1 UNK         0.2989 
     87 H87        24.8435  -45.8760  -55.1694 H         1 UNK         0.0559 
     88 H88        22.5328  -46.4334  -57.1038 H         1 UNK         0.0848 
     89 H89        22.4045  -45.7017  -55.5113 H         1 UNK         0.0848 
     90 H90        22.9009  -47.3783  -55.6614 H         1 UNK         0.0848 
     91 H91        25.9306  -47.4622  -56.2370 H         1 UNK         0.3144 
     92 H92        25.5702  -49.1972  -59.1328 H         1 UNK         0.0727 
     93 H93        27.8969  -48.6800  -59.9776 H         1 UNK         0.0790 
     94 H94        26.6876  -47.5399  -60.5442 H         1 UNK         0.0790 
     95 H95        27.7785  -47.0768  -59.2510 H         1 UNK         0.0790 
     96 H96        27.8478  -48.7619  -57.3442 H         1 UNK         0.3215 
     97 H97        26.5406  -50.6919  -54.7039 H         1 UNK         0.0863 
     98 H98        27.1205  -52.6350  -56.1803 H         1 UNK         0.0808 
     99 H99        28.3902  -52.3219  -55.0083 H         1 UNK         0.0808 
    100 H100       28.5947  -51.8193  -56.6858 H         1 UNK         0.0808 
    101 H101       29.2181  -49.9923  -55.0696 H         1 UNK         0.3118 
    102 H102       29.1316  -46.4881  -54.6996 H         1 UNK         0.0546 
    103 H103       30.7294  -47.0811  -52.8278 H         1 UNK         0.0828 
    104 H104       29.9237  -48.6400  -52.6826 H         1 UNK         0.0828 
    105 H105       29.0405  -47.1608  -52.3547 H         1 UNK         0.0828 
    106 H106       31.3658  -48.1304  -54.8740 H         1 UNK         0.3005 
    107 H107       31.4340  -48.7864  -58.3862 H         1 UNK         0.1257 
    108 H108       33.7576  -47.7949  -57.8716 H         1 UNK         0.0775 
    109 H109       33.0032  -46.8355  -56.6317 H         1 UNK         0.0775 
    110 H110       34.0257  -44.6356  -58.0719 H         1 UNK         0.0840 
    111 H111       32.7386  -43.7839  -58.8876 H         1 UNK         0.0840 
    112 H112       32.8482  -49.3611  -55.8500 H         1 UNK         0.2987 
    113 H113       31.8372  -52.7241  -55.8306 H         1 UNK         0.0785 
    114 H114       33.6386  -52.9352  -57.5505 H         1 UNK         0.0798 
    115 H115       34.2441  -53.3284  -55.9508 H         1 UNK         0.0798 
    116 H116       34.6265  -51.7685  -56.6823 H         1 UNK         0.0798 
    117 H117       33.8576  -51.3317  -54.3549 H         1 UNK         0.3079 
    118 H118       31.6727  -49.8934  -51.9241 H         1 UNK         0.0794 
    119 H119       33.0472  -51.2417  -50.4088 H         1 UNK         0.0786 
    120 H120       33.6828  -52.1917  -51.7525 H         1 UNK         0.0786 
    121 H121       31.9836  -52.3041  -51.3131 H         1 UNK         0.0786 
    122 H122       34.2984  -49.6148  -51.6965 H         1 UNK         0.3032 
    123 H123       35.6649  -47.9873  -52.4022 H         1 UNK         0.1094 
    124 H124       34.7682  -46.3870  -54.8714 H         1 UNK         0.0794 
    125 H125       36.3115  -46.2310  -54.0365 H         1 UNK         0.0794 
    126 H126       35.9160  -47.7177  -54.8844 H         1 UNK         0.0794 
    127 H127       33.8606  -45.6626  -52.7463 H         1 UNK         0.3016 
@<TRIPOS>BOND
     1    1    2 1    
     2    1   67 1    
     3    1   68 1    
     4    1   69 1    
     5    2    3 2    
     6    2    4 am   BACKBONE|DICT|INTERRES
     7    4    5 1    
     8    4   70 1    
     9    5    6 1    
    10    5   65 1    
    11    5   71 1    
    12    6    7 1    
    13    6   72 1    
    14    6   73 1    
    15    7    8 1    
    16    8    9 1    
    17    8   74 1    
    18    8   75 1    
    19    9   10 ar   
    20    9   14 ar   
    21   10   11 ar   
    22   10   76 1    
    23   11   12 ar   
    24   11   48 1    
    25   12   13 ar   
    26   12   77 1    
    27   13   14 ar   
    28   13   15 1    
    29   14   78 1    
    30   15   16 1    
    31   15   79 1    
    32   15   80 1    
    33   16   17 1    
    34   17   18 1    
    35   17   81 1    
    36   17   82 1    
    37   18   19 1    
    38   18   22 1    
    39   18   83 1    
    40   19   20 am   BACKBONE|DICT|INTERRES
    41   19   21 2    
    42   20   84 1    
    43   20   85 1    
    44   22   23 am   BACKBONE|DICT|INTERRES
    45   22   86 1    
    46   23   24 2    
    47   23   25 1    
    48   25   26 1    
    49   25   27 1    
    50   25   87 1    
    51   26   88 1    
    52   26   89 1    
    53   26   90 1    
    54   27   28 am   BACKBONE|DICT|INTERRES
    55   27   91 1    
    56   28   29 2    
    57   28   30 1    
    58   30   31 1    
    59   30   32 1    
    60   30   92 1    
    61   31   93 1    
    62   31   94 1    
    63   31   95 1    
    64   32   33 am   BACKBONE|DICT|INTERRES
    65   32   96 1    
    66   33   34 2    
    67   33   35 1    
    68   35   36 1    
    69   35   37 1    
    70   35   97 1    
    71   36   98 1    
    72   36   99 1    
    73   36  100 1    
    74   37   38 am   BACKBONE|DICT|INTERRES
    75   37  101 1    
    76   38   39 2    
    77   38   40 1    
    78   40   41 1    
    79   40   42 1    
    80   40  102 1    
    81   41  103 1    
    82   41  104 1    
    83   41  105 1    
    84   42   43 am   BACKBONE|DICT|INTERRES
    85   42  106 1    
    86   43   44 2    
    87   43   45 1    
    88   45   46 1    
    89   45   49 1    
    90   45  107 1    
    91   46   47 1    
    92   46  108 1    
    93   46  109 1    
    94   47   48 1    
    95   48  110 1    
    96   48  111 1    
    97   49   50 am   BACKBONE|DICT|INTERRES
    98   49  112 1    
    99   50   51 2    
   100   50   52 1    
   101   52   53 1    
   102   52   54 1    
   103   52  113 1    
   104   53  114 1    
   105   53  115 1    
   106   53  116 1    
   107   54   55 am   BACKBONE|DICT|INTERRES
   108   54  117 1    
   109   55   56 2    
   110   55   57 1    
   111   57   58 1    
   112   57   59 1    
   113   57  118 1    
   114   58  119 1    
   115   58  120 1    
   116   58  121 1    
   117   59   60 am   BACKBONE|DICT|INTERRES
   118   59  122 1    
   119   60   61 2    
   120   60   62 1    
   121   62   63 1    
   122   62   64 1    
   123   62  123 1    
   124   63  124 1    
   125   63  125 1    
   126   63  126 1    
   127   64   65 am   BACKBONE|DICT|INTERRES
   128   64  127 1    
   129   65   66 2    
@<TRIPOS>SUBSTRUCTURE
     1 UNK         1 GROUP             0       ****    0 ROOT    
