@<TRIPOS>MOLECULE
3R134
127   129    1
SMALL
USER_CHARGES


@<TRIPOS>ATOM
      1 CA         36.3207  -41.0960  -56.8342 C.3       0 UNK        -0.1968 
      2 C          35.2572  -42.1473  -57.1169 C.2       0 UNK         0.4852 
      3 O          34.9699  -42.4276  -58.2821 O.2       0 UNK        -0.5359 
      4 N          34.6676  -42.7222  -56.0614 N.am      1 UNK        -0.4300 
      5 CA         33.6812  -43.8031  -56.1370 C.3       1 UNK         0.0863 
      6 C6         32.7963  -43.8498  -54.8627 C.3       11 UNK        -0.0953 
      7 S7         33.6923  -44.2171  -53.3127 S.3       11 UNK        -0.2369 
      8 C8         32.6658  -43.3471  -52.0884 C.3       11 UNK         0.0226 
      9 C9         31.3289  -44.0402  -51.8582 C.ar      11 UNK        -0.0699 
     10 C10        31.1892  -44.9819  -50.8341 C.ar      11 UNK        -0.0804 
     11 C11        29.9490  -45.5770  -50.5791 C.ar      11 UNK        -0.0871 
     12 C12        28.8461  -45.2339  -51.3670 C.ar      11 UNK        -0.1008 
     13 C13        28.9785  -44.3096  -52.4084 C.ar      11 UNK        -0.0735 
     14 C14        30.2198  -43.7114  -52.6428 C.ar      11 UNK        -0.0945 
     15 C15        27.7768  -43.9236  -53.2608 C.3       11 UNK         0.0169 
     16 S16        27.0296  -45.3405  -54.1270 S.3       11 UNK        -0.2669 
     17 C17        28.3787  -45.8961  -55.2266 C.3       11 UNK        -0.0850 
     18 CA         28.4602  -45.1045  -56.5590 C.3       10 UNK         0.0855 
     19 C          29.6391  -45.6108  -57.4404 C.2       10 UNK         0.5543 
     20 N          29.4303  -46.0250  -58.6846 N.am      10 UNK        -0.7343 
     21 O          30.7771  -45.6272  -56.9816 O.2       10 UNK        -0.5027 
     22 N          27.1694  -45.0635  -57.2623 N.am      10 UNK        -0.4495 
     23 C          26.7863  -44.0765  -58.0840 C.2       10 UNK         0.4903 
     24 O          27.4416  -43.0480  -58.2611 O.2       10 UNK        -0.4860 
     25 CA         25.4514  -44.2666  -58.8384 C.3       9 UNK         0.0227 
     26 CB         25.3918  -43.4522  -60.1488 C.3       9 UNK        -0.1964 
     27 N          25.1078  -45.6726  -59.0916 N.am      9 UNK        -0.4231 
     28 C          25.8456  -46.5759  -59.7529 C.2       9 UNK         0.5014 
     29 O          26.9326  -46.3369  -60.2846 O.2       9 UNK        -0.5270 
     30 CA         25.2957  -48.0106  -59.7745 C.3       8 UNK         0.0284 
     31 CB         25.0186  -48.4713  -61.2153 C.3       8 UNK        -0.1977 
     32 N          26.2171  -48.9493  -59.1293 N.am      8 UNK        -0.4342 
     33 C          26.6297  -48.8759  -57.8565 C.2       8 UNK         0.5039 
     34 O          26.2887  -47.9882  -57.0697 O.2       8 UNK        -0.5547 
     35 CA         27.6157  -49.9652  -57.4000 C.3       7 UNK         0.0281 
     36 CB         29.0664  -49.4891  -57.5841 C.3       7 UNK        -0.1963 
     37 N          27.4129  -50.3486  -56.0015 N.am      7 UNK        -0.4444 
     38 C          26.3163  -50.9402  -55.5053 C.2       7 UNK         0.5104 
     39 O          25.3557  -51.2864  -56.1949 O.2       7 UNK        -0.5100 
     40 CA         26.2931  -51.2302  -53.9906 C.3       6 UNK         0.0396 
     41 CB         26.3184  -52.7460  -53.7328 C.3       6 UNK        -0.1801 
     42 N          27.4124  -50.6168  -53.2707 N.am      6 UNK        -0.4747 
     43 C          27.4769  -49.3462  -52.8545 C.2       6 UNK         0.5012 
     44 O          26.5386  -48.5587  -52.9585 O.2       6 UNK        -0.5003 
     45 CA         28.8123  -48.8559  -52.2477 C.3       5 UNK         0.0782 
     46 C46        28.7563  -48.8821  -50.6974 C.3       11 UNK        -0.0868 
     47 S47        30.2767  -48.2484  -49.9067 S.3       11 UNK        -0.2515 
     48 C48        29.7995  -46.5594  -49.4267 C.3       11 UNK         0.0199 
     49 N          30.0080  -49.5066  -52.8168 N.am      5 UNK        -0.4607 
     50 C          30.4227  -50.7753  -52.6753 C.2       4 UNK         0.5031 
     51 O          29.7838  -51.6438  -52.0824 O.2       4 UNK        -0.5119 
     52 CA         31.7481  -51.1588  -53.3548 C.3       4 UNK         0.0263 
     53 CB         31.4722  -51.8676  -54.6912 C.3       4 UNK        -0.1967 
     54 N          32.6171  -50.0059  -53.5976 N.am      4 UNK        -0.4237 
     55 C          33.3489  -49.3822  -52.6643 C.2       3 UNK         0.4908 
     56 O          33.4177  -49.7622  -51.4950 O.2       3 UNK        -0.5102 
     57 CA         34.1053  -48.1036  -53.0795 C.3       3 UNK         0.0241 
     58 CB         35.6093  -48.1939  -52.7488 C.3       3 UNK        -0.1971 
     59 N          33.8932  -47.6719  -54.4706 N.am      3 UNK        -0.4139 
     60 C          34.2937  -48.2644  -55.6077 C.2       2 UNK         0.5016 
     61 O          34.8915  -49.3391  -55.6494 O.2       2 UNK        -0.5319 
     62 CA         33.9263  -47.5633  -56.9306 C.3       2 UNK         0.0286 
     63 CB         32.7905  -48.3228  -57.6375 C.3       2 UNK        -0.1963 
     64 N          33.5210  -46.1645  -56.7569 N.am      2 UNK        -0.4790 
     65 C          34.3497  -45.1637  -56.4326 C.2       1 UNK         0.5024 
     66 O          35.5704  -45.3047  -56.3173 O.2       1 UNK        -0.4888 
     67 H67        36.4626  -40.9363  -55.7654 H         1 UNK         0.0892 
     68 H68        36.0375  -40.1448  -57.2841 H         1 UNK         0.0892 
     69 H69        37.2750  -41.4045  -57.2602 H         1 UNK         0.0892 
     70 H70        34.9706  -42.4836  -55.1279 H         1 UNK         0.3107 
     71 H71        33.0198  -43.5911  -56.9804 H         1 UNK         0.0773 
     72 H72        32.2928  -42.8880  -54.7580 H         1 UNK         0.0680 
     73 H73        31.9975  -44.5840  -54.9672 H         1 UNK         0.0680 
     74 H74        33.2189  -43.2923  -51.1496 H         1 UNK         0.0650 
     75 H75        32.5099  -42.3148  -52.4053 H         1 UNK         0.0650 
     76 H76        32.0431  -45.2391  -50.2221 H         1 UNK         0.1397 
     77 H77        27.8821  -45.6849  -51.1734 H         1 UNK         0.1363 
     78 H78        30.3204  -42.9777  -53.4301 H         1 UNK         0.1355 
     79 H79        28.0450  -43.1645  -53.9972 H         1 UNK         0.0707 
     80 H80        27.0217  -43.4708  -52.6170 H         1 UNK         0.0707 
     81 H81        28.2133  -46.9550  -55.4310 H         1 UNK         0.1034 
     82 H82        29.3254  -45.8414  -54.6863 H         1 UNK         0.1034 
     83 H83        28.7246  -44.0797  -56.2924 H         1 UNK         0.0482 
     84 H84        30.2148  -46.3359  -59.2328 H         1 UNK         0.3460 
     85 H85        28.5030  -46.0191  -59.0960 H         1 UNK         0.3460 
     86 H86        26.6038  -45.9026  -57.1844 H         1 UNK         0.2989 
     87 H87        24.6764  -43.8803  -58.1751 H         1 UNK         0.0559 
     88 H88        26.1833  -43.7424  -60.8407 H         1 UNK         0.0848 
     89 H89        25.5058  -42.3850  -59.9545 H         1 UNK         0.0848 
     90 H90        24.4368  -43.5854  -60.6569 H         1 UNK         0.0848 
     91 H91        24.2517  -45.9916  -58.6582 H         1 UNK         0.3144 
     92 H92        24.3548  -48.0417  -59.2209 H         1 UNK         0.0727 
     93 H93        24.5724  -49.4658  -61.2371 H         1 UNK         0.0790 
     94 H94        25.9305  -48.4978  -61.8137 H         1 UNK         0.0790 
     95 H95        24.3230  -47.7944  -61.7133 H         1 UNK         0.0790 
     96 H96        26.5817  -49.6876  -59.7138 H         1 UNK         0.3215 
     97 H97        27.4594  -50.8556  -58.0129 H         1 UNK         0.0863 
     98 H98        29.7773  -50.2868  -57.3700 H         1 UNK         0.0808 
     99 H99        29.3000  -48.6451  -56.9350 H         1 UNK         0.0808 
    100 H100       29.2472  -49.1661  -58.6104 H         1 UNK         0.0808 
    101 H101       28.1297  -50.0824  -55.3457 H         1 UNK         0.3118 
    102 H102       25.3562  -50.8322  -53.5955 H         1 UNK         0.0546 
    103 H103       25.4773  -53.2411  -54.2201 H         1 UNK         0.0828 
    104 H104       26.2493  -52.9685  -52.6679 H         1 UNK         0.0828 
    105 H105       27.2319  -53.2051  -54.1129 H         1 UNK         0.0828 
    106 H106       28.2097  -51.2110  -53.0588 H         1 UNK         0.3005 
    107 H107       28.8930  -47.8096  -52.5469 H         1 UNK         0.1257 
    108 H108       28.6001  -49.9017  -50.3409 H         1 UNK         0.0775 
    109 H109       27.9001  -48.3087  -50.3373 H         1 UNK         0.0775 
    110 H110       28.7807  -46.5501  -49.0362 H         1 UNK         0.0840 
    111 H111       30.4361  -46.2433  -48.5988 H         1 UNK         0.0840 
    112 H112       30.6139  -48.8892  -53.3357 H         1 UNK         0.2987 
    113 H113       32.2684  -51.8564  -52.6947 H         1 UNK         0.0785 
    114 H114       30.9538  -51.2175  -55.3963 H         1 UNK         0.0798 
    115 H115       30.8494  -52.7513  -54.5439 H         1 UNK         0.0798 
    116 H116       32.3978  -52.2013  -55.1609 H         1 UNK         0.0798 
    117 H117       32.6746  -49.6655  -54.5458 H         1 UNK         0.3079 
    118 H118       33.6865  -47.3068  -52.4624 H         1 UNK         0.0794 
    119 H119       36.1252  -47.2672  -53.0008 H         1 UNK         0.0786 
    120 H120       35.7657  -48.3709  -51.6839 H         1 UNK         0.0786 
    121 H121       36.0967  -49.0077  -53.2862 H         1 UNK         0.0786 
    122 H122       33.4017  -46.7947  -54.5724 H         1 UNK         0.3032 
    123 H123       34.8127  -47.5902  -57.5685 H         1 UNK         0.1094 
    124 H124       32.5625  -47.8809  -58.6076 H         1 UNK         0.0794 
    125 H125       33.0629  -49.3644  -57.8137 H         1 UNK         0.0794 
    126 H126       31.8742  -48.3191  -57.0464 H         1 UNK         0.0794 
    127 H127       32.5231  -45.9662  -56.8442 H         1 UNK         0.3016 
@<TRIPOS>BOND
     1    1    2 1    
     2    1   67 1    
     3    1   68 1    
     4    1   69 1    
     5    2    3 2    
     6    2    4 am   BACKBONE|DICT|INTERRES
     7    4    5 1    
     8    4   70 1    
     9    5    6 1    
    10    5   65 1    
    11    5   71 1    
    12    6    7 1    
    13    6   72 1    
    14    6   73 1    
    15    7    8 1    
    16    8    9 1    
    17    8   74 1    
    18    8   75 1    
    19    9   10 ar   
    20    9   14 ar   
    21   10   11 ar   
    22   10   76 1    
    23   11   12 ar   
    24   11   48 1    
    25   12   13 ar   
    26   12   77 1    
    27   13   14 ar   
    28   13   15 1    
    29   14   78 1    
    30   15   16 1    
    31   15   79 1    
    32   15   80 1    
    33   16   17 1    
    34   17   18 1    
    35   17   81 1    
    36   17   82 1    
    37   18   19 1    
    38   18   22 1    
    39   18   83 1    
    40   19   20 am   BACKBONE|DICT|INTERRES
    41   19   21 2    
    42   20   84 1    
    43   20   85 1    
    44   22   23 am   BACKBONE|DICT|INTERRES
    45   22   86 1    
    46   23   24 2    
    47   23   25 1    
    48   25   26 1    
    49   25   27 1    
    50   25   87 1    
    51   26   88 1    
    52   26   89 1    
    53   26   90 1    
    54   27   28 am   BACKBONE|DICT|INTERRES
    55   27   91 1    
    56   28   29 2    
    57   28   30 1    
    58   30   31 1    
    59   30   32 1    
    60   30   92 1    
    61   31   93 1    
    62   31   94 1    
    63   31   95 1    
    64   32   33 am   BACKBONE|DICT|INTERRES
    65   32   96 1    
    66   33   34 2    
    67   33   35 1    
    68   35   36 1    
    69   35   37 1    
    70   35   97 1    
    71   36   98 1    
    72   36   99 1    
    73   36  100 1    
    74   37   38 am   BACKBONE|DICT|INTERRES
    75   37  101 1    
    76   38   39 2    
    77   38   40 1    
    78   40   41 1    
    79   40   42 1    
    80   40  102 1    
    81   41  103 1    
    82   41  104 1    
    83   41  105 1    
    84   42   43 am   BACKBONE|DICT|INTERRES
    85   42  106 1    
    86   43   44 2    
    87   43   45 1    
    88   45   46 1    
    89   45   49 1    
    90   45  107 1    
    91   46   47 1    
    92   46  108 1    
    93   46  109 1    
    94   47   48 1    
    95   48  110 1    
    96   48  111 1    
    97   49   50 am   BACKBONE|DICT|INTERRES
    98   49  112 1    
    99   50   51 2    
   100   50   52 1    
   101   52   53 1    
   102   52   54 1    
   103   52  113 1    
   104   53  114 1    
   105   53  115 1    
   106   53  116 1    
   107   54   55 am   BACKBONE|DICT|INTERRES
   108   54  117 1    
   109   55   56 2    
   110   55   57 1    
   111   57   58 1    
   112   57   59 1    
   113   57  118 1    
   114   58  119 1    
   115   58  120 1    
   116   58  121 1    
   117   59   60 am   BACKBONE|DICT|INTERRES
   118   59  122 1    
   119   60   61 2    
   120   60   62 1    
   121   62   63 1    
   122   62   64 1    
   123   62  123 1    
   124   63  124 1    
   125   63  125 1    
   126   63  126 1    
   127   64   65 am   BACKBONE|DICT|INTERRES
   128   64  127 1    
   129   65   66 2    
@<TRIPOS>SUBSTRUCTURE
     1 UNK         1 GROUP             0       ****    0 ROOT    
