@<TRIPOS>MOLECULE
3R134
127   129    1
SMALL
USER_CHARGES


@<TRIPOS>ATOM
      1 CA         36.9384  -48.1811  -52.7713 C.3       0 UNK        -0.1968 
      2 C          36.9485  -46.8749  -51.9812 C.2       0 UNK         0.4852 
      3 O          37.7428  -46.7383  -51.0525 O.2       0 UNK        -0.5359 
      4 N          36.0958  -45.8910  -52.3014 N.am      1 UNK        -0.4300 
      5 CA         35.0700  -45.9063  -53.3530 C.3       1 UNK         0.0863 
      6 C6         34.8761  -44.5055  -53.9842 C.3       11 UNK        -0.0953 
      7 S7         34.3855  -43.2113  -52.7934 S.3       11 UNK        -0.2369 
      8 C8         33.4551  -42.0754  -53.8706 C.3       11 UNK         0.0226 
      9 C9         32.1161  -42.6539  -54.3090 C.ar      11 UNK        -0.0699 
     10 C10        31.1026  -42.8595  -53.3681 C.ar      11 UNK        -0.0804 
     11 C11        29.8567  -43.3602  -53.7579 C.ar      11 UNK        -0.0871 
     12 C12        29.6264  -43.6376  -55.1091 C.ar      11 UNK        -0.1008 
     13 C13        30.6343  -43.4507  -56.0576 C.ar      11 UNK        -0.0735 
     14 C14        31.8791  -42.9589  -55.6538 C.ar      11 UNK        -0.0945 
     15 C15        30.3602  -43.7721  -57.5168 C.3       11 UNK         0.0169 
     16 S16        29.6268  -42.3342  -58.3536 S.3       11 UNK        -0.2669 
     17 C17        28.7695  -43.1234  -59.7577 C.3       11 UNK        -0.0850 
     18 CA         27.2392  -43.2304  -59.5172 C.3       10 UNK         0.0855 
     19 C          26.4828  -43.6107  -60.8246 C.2       10 UNK         0.5543 
     20 N          25.6905  -44.6755  -60.8541 N.am      10 UNK        -0.7343 
     21 O          26.6091  -42.9172  -61.8307 O.2       10 UNK        -0.5027 
     22 N          26.9358  -44.1012  -58.3688 N.am      10 UNK        -0.4495 
     23 C          25.8604  -44.0092  -57.5806 C.2       10 UNK         0.4903 
     24 O          24.9906  -43.1451  -57.7029 O.2       10 UNK        -0.4860 
     25 CA         25.7298  -45.0972  -56.4954 C.3       9 UNK         0.0227 
     26 CB         24.5722  -44.8283  -55.5164 C.3       9 UNK        -0.1964 
     27 N          25.5628  -46.4305  -57.0829 N.am      9 UNK        -0.4231 
     28 C          26.5480  -47.1611  -57.6198 C.2       9 UNK         0.5014 
     29 O          27.7160  -46.7740  -57.6963 O.2       9 UNK        -0.5270 
     30 CA         26.1582  -48.5124  -58.2252 C.3       8 UNK         0.0284 
     31 CB         26.2262  -48.4582  -59.7638 C.3       8 UNK        -0.1977 
     32 N          27.0503  -49.5463  -57.7063 N.am      8 UNK        -0.4342 
     33 C          26.7826  -50.8591  -57.7043 C.2       8 UNK         0.5039 
     34 O          25.7648  -51.3513  -58.1945 O.2       8 UNK        -0.5547 
     35 CA         27.7996  -51.7828  -57.0153 C.3       7 UNK         0.0281 
     36 CB         29.0737  -51.9535  -57.8603 C.3       7 UNK        -0.1963 
     37 N          28.1370  -51.2893  -55.6797 N.am      7 UNK        -0.4444 
     38 C          27.3775  -51.4863  -54.5922 C.2       7 UNK         0.5104 
     39 O          26.3654  -52.1882  -54.5838 O.2       7 UNK        -0.5100 
     40 CA         27.8044  -50.7870  -53.2873 C.3       6 UNK         0.0396 
     41 CB         28.6605  -51.7303  -52.4277 C.3       6 UNK        -0.1801 
     42 N          28.5325  -49.5349  -53.4975 N.am      6 UNK        -0.4747 
     43 C          28.0239  -48.4297  -54.0623 C.2       6 UNK         0.5012 
     44 O          26.8515  -48.3227  -54.4223 O.2       6 UNK        -0.5003 
     45 CA         29.0125  -47.2679  -54.3007 C.3       5 UNK         0.0782 
     46 C46        29.1582  -46.3971  -53.0253 C.3       11 UNK        -0.0868 
     47 S47        27.8360  -45.1420  -52.9200 S.3       11 UNK        -0.2515 
     48 C48        28.7737  -43.5886  -52.7064 C.3       11 UNK         0.0199 
     49 N          30.3144  -47.7270  -54.8046 N.am      5 UNK        -0.4607 
     50 C          30.5040  -48.4697  -55.9060 C.2       4 UNK         0.5031 
     51 O          29.5993  -48.8454  -56.6467 O.2       4 UNK        -0.5119 
     52 CA         31.9339  -48.9483  -56.1871 C.3       4 UNK         0.0263 
     53 CB         32.7730  -47.8427  -56.8500 C.3       4 UNK        -0.1967 
     54 N          32.5731  -49.4189  -54.9573 N.am      4 UNK        -0.4237 
     55 C          32.2822  -50.5876  -54.3644 C.2       3 UNK         0.4908 
     56 O          31.5292  -51.4310  -54.8511 O.2       3 UNK        -0.5102 
     57 CA         32.9127  -50.8551  -52.9849 C.3       3 UNK         0.0241 
     58 CB         34.2735  -51.5526  -53.1416 C.3       3 UNK        -0.1971 
     59 N          33.0756  -49.6438  -52.1760 N.am      3 UNK        -0.4139 
     60 C          32.0668  -48.8945  -51.7082 C.2       2 UNK         0.5016 
     61 O          30.8791  -49.1795  -51.8533 O.2       2 UNK        -0.5319 
     62 CA         32.4493  -47.5718  -51.0180 C.3       2 UNK         0.0286 
     63 CB         32.6787  -47.7940  -49.5154 C.3       2 UNK        -0.1963 
     64 N          33.6281  -46.9169  -51.6032 N.am      2 UNK        -0.4790 
     65 C          33.7349  -46.5296  -52.8848 C.2       1 UNK         0.5024 
     66 O          32.8336  -46.6966  -53.7052 O.2       1 UNK        -0.4888 
     67 H67        37.3262  -48.0208  -53.7773 H         1 UNK         0.0892 
     68 H68        37.5708  -48.9249  -52.2866 H         1 UNK         0.0892 
     69 H69        35.9367  -48.5992  -52.8442 H         1 UNK         0.0892 
     70 H70        36.1319  -45.0323  -51.7692 H         1 UNK         0.3107 
     71 H71        35.4178  -46.5472  -54.1647 H         1 UNK         0.0773 
     72 H72        34.1462  -44.5583  -54.7937 H         1 UNK         0.0680 
     73 H73        35.8075  -44.1860  -54.4545 H         1 UNK         0.0680 
     74 H74        34.0710  -41.8142  -54.7330 H         1 UNK         0.0650 
     75 H75        33.2783  -41.1452  -53.3284 H         1 UNK         0.0650 
     76 H76        31.2909  -42.6283  -52.3284 H         1 UNK         0.1397 
     77 H77        28.6621  -44.0066  -55.4263 H         1 UNK         0.1363 
     78 H78        32.6565  -42.8016  -56.3889 H         1 UNK         0.1355 
     79 H79        31.2800  -44.0621  -58.0274 H         1 UNK         0.0707 
     80 H80        29.6882  -44.6298  -57.5799 H         1 UNK         0.0707 
     81 H81        28.9776  -42.5135  -60.6392 H         1 UNK         0.1034 
     82 H82        29.2012  -44.1045  -59.9646 H         1 UNK         0.1034 
     83 H83        26.8838  -42.2280  -59.2698 H         1 UNK         0.0482 
     84 H84        25.5631  -45.2343  -60.0278 H         1 UNK         0.3460 
     85 H85        25.2024  -44.9052  -61.7054 H         1 UNK         0.3460 
     86 H86        27.5475  -44.8999  -58.2283 H         1 UNK         0.2989 
     87 H87        26.6529  -45.0894  -55.9132 H         1 UNK         0.0559 
     88 H88        24.6833  -43.8526  -55.0409 H         1 UNK         0.0848 
     89 H89        24.5492  -45.5718  -54.7189 H         1 UNK         0.0848 
     90 H90        23.6035  -44.8397  -56.0176 H         1 UNK         0.0848 
     91 H91        24.6237  -46.8029  -57.0876 H         1 UNK         0.3144 
     92 H92        25.1364  -48.7517  -57.9222 H         1 UNK         0.0727 
     93 H93        27.2370  -48.2419  -60.1127 H         1 UNK         0.0790 
     94 H94        25.5700  -47.6817  -60.1581 H         1 UNK         0.0790 
     95 H95        25.9130  -49.4009  -60.2124 H         1 UNK         0.0790 
     96 H96        27.9207  -49.2062  -57.2922 H         1 UNK         0.3215 
     97 H97        27.3408  -52.7693  -56.9160 H         1 UNK         0.0863 
     98 H98        29.7905  -52.6105  -57.3669 H         1 UNK         0.0808 
     99 H99        29.5724  -51.0048  -58.0561 H         1 UNK         0.0808 
    100 H100       28.8376  -52.3984  -58.8278 H         1 UNK         0.0808 
    101 H101       28.9312  -50.6654  -55.6113 H         1 UNK         0.3118 
    102 H102       26.8962  -50.5494  -52.7299 H         1 UNK         0.0546 
    103 H103       29.5943  -51.9926  -52.9260 H         1 UNK         0.0828 
    104 H104       28.1291  -52.6598  -52.2192 H         1 UNK         0.0828 
    105 H105       28.9098  -51.2771  -51.4680 H         1 UNK         0.0828 
    106 H106       29.4875  -49.4980  -53.1479 H         1 UNK         0.3005 
    107 H107       28.5938  -46.6557  -55.1025 H         1 UNK         0.1257 
    108 H108       30.1261  -45.8946  -53.0232 H         1 UNK         0.0775 
    109 H109       29.1504  -47.0002  -52.1151 H         1 UNK         0.0775 
    110 H110       28.0758  -42.7509  -52.7348 H         1 UNK         0.0840 
    111 H111       29.2097  -43.5929  -51.7061 H         1 UNK         0.0840 
    112 H112       31.1323  -47.4363  -54.2780 H         1 UNK         0.2987 
    113 H113       31.8764  -49.7858  -56.8862 H         1 UNK         0.0785 
    114 H114       32.3445  -47.5637  -57.8135 H         1 UNK         0.0798 
    115 H115       33.7945  -48.1752  -57.0346 H         1 UNK         0.0798 
    116 H116       32.8174  -46.9356  -56.2480 H         1 UNK         0.0798 
    117 H117       33.1435  -48.7479  -54.4631 H         1 UNK         0.3079 
    118 H118       32.2432  -51.5276  -52.4439 H         1 UNK         0.0794 
    119 H119       34.1720  -52.4790  -53.7088 H         1 UNK         0.0786 
    120 H120       34.7004  -51.8141  -52.1731 H         1 UNK         0.0786 
    121 H121       34.9936  -50.9262  -53.6695 H         1 UNK         0.0786 
    122 H122       34.0183  -49.3451  -51.9793 H         1 UNK         0.3032 
    123 H123       31.6035  -46.8913  -51.1370 H         1 UNK         0.1094 
    124 H124       32.8467  -46.8505  -48.9958 H         1 UNK         0.0794 
    125 H125       31.8091  -48.2644  -49.0537 H         1 UNK         0.0794 
    126 H126       33.5373  -48.4398  -49.3268 H         1 UNK         0.0794 
    127 H127       34.4029  -46.7304  -50.9824 H         1 UNK         0.3016 
@<TRIPOS>BOND
     1    1    2 1    
     2    1   67 1    
     3    1   68 1    
     4    1   69 1    
     5    2    3 2    
     6    2    4 am   BACKBONE|DICT|INTERRES
     7    4    5 1    
     8    4   70 1    
     9    5    6 1    
    10    5   65 1    
    11    5   71 1    
    12    6    7 1    
    13    6   72 1    
    14    6   73 1    
    15    7    8 1    
    16    8    9 1    
    17    8   74 1    
    18    8   75 1    
    19    9   10 ar   
    20    9   14 ar   
    21   10   11 ar   
    22   10   76 1    
    23   11   12 ar   
    24   11   48 1    
    25   12   13 ar   
    26   12   77 1    
    27   13   14 ar   
    28   13   15 1    
    29   14   78 1    
    30   15   16 1    
    31   15   79 1    
    32   15   80 1    
    33   16   17 1    
    34   17   18 1    
    35   17   81 1    
    36   17   82 1    
    37   18   19 1    
    38   18   22 1    
    39   18   83 1    
    40   19   20 am   BACKBONE|DICT|INTERRES
    41   19   21 2    
    42   20   84 1    
    43   20   85 1    
    44   22   23 am   BACKBONE|DICT|INTERRES
    45   22   86 1    
    46   23   24 2    
    47   23   25 1    
    48   25   26 1    
    49   25   27 1    
    50   25   87 1    
    51   26   88 1    
    52   26   89 1    
    53   26   90 1    
    54   27   28 am   BACKBONE|DICT|INTERRES
    55   27   91 1    
    56   28   29 2    
    57   28   30 1    
    58   30   31 1    
    59   30   32 1    
    60   30   92 1    
    61   31   93 1    
    62   31   94 1    
    63   31   95 1    
    64   32   33 am   BACKBONE|DICT|INTERRES
    65   32   96 1    
    66   33   34 2    
    67   33   35 1    
    68   35   36 1    
    69   35   37 1    
    70   35   97 1    
    71   36   98 1    
    72   36   99 1    
    73   36  100 1    
    74   37   38 am   BACKBONE|DICT|INTERRES
    75   37  101 1    
    76   38   39 2    
    77   38   40 1    
    78   40   41 1    
    79   40   42 1    
    80   40  102 1    
    81   41  103 1    
    82   41  104 1    
    83   41  105 1    
    84   42   43 am   BACKBONE|DICT|INTERRES
    85   42  106 1    
    86   43   44 2    
    87   43   45 1    
    88   45   46 1    
    89   45   49 1    
    90   45  107 1    
    91   46   47 1    
    92   46  108 1    
    93   46  109 1    
    94   47   48 1    
    95   48  110 1    
    96   48  111 1    
    97   49   50 am   BACKBONE|DICT|INTERRES
    98   49  112 1    
    99   50   51 2    
   100   50   52 1    
   101   52   53 1    
   102   52   54 1    
   103   52  113 1    
   104   53  114 1    
   105   53  115 1    
   106   53  116 1    
   107   54   55 am   BACKBONE|DICT|INTERRES
   108   54  117 1    
   109   55   56 2    
   110   55   57 1    
   111   57   58 1    
   112   57   59 1    
   113   57  118 1    
   114   58  119 1    
   115   58  120 1    
   116   58  121 1    
   117   59   60 am   BACKBONE|DICT|INTERRES
   118   59  122 1    
   119   60   61 2    
   120   60   62 1    
   121   62   63 1    
   122   62   64 1    
   123   62  123 1    
   124   63  124 1    
   125   63  125 1    
   126   63  126 1    
   127   64   65 am   BACKBONE|DICT|INTERRES
   128   64  127 1    
   129   65   66 2    
@<TRIPOS>SUBSTRUCTURE
     1 UNK         1 GROUP             0       ****    0 ROOT    
