@<TRIPOS>MOLECULE
3R134
127   129    1
SMALL
USER_CHARGES


@<TRIPOS>ATOM
      1 CA         35.8170  -45.9026  -52.5751 C.3       0 UNK        -0.1968 
      2 C          34.8575  -46.0399  -53.7474 C.2       0 UNK         0.4852 
      3 O          33.7317  -46.4997  -53.5584 O.2       0 UNK        -0.5359 
      4 N          35.3010  -45.6524  -54.9532 N.am      1 UNK        -0.4300 
      5 CA         34.5801  -45.6529  -56.2396 C.3       1 UNK         0.0863 
      6 C6         33.2937  -44.7832  -56.2442 C.3       11 UNK        -0.0953 
      7 S7         33.6724  -43.0029  -56.1408 S.3       11 UNK        -0.2369 
      8 C8         33.3850  -42.6314  -54.3767 C.3       11 UNK         0.0226 
      9 C9         31.9280  -42.7110  -53.9233 C.ar      11 UNK        -0.0699 
     10 C10        31.6444  -43.1201  -52.6152 C.ar      11 UNK        -0.0804 
     11 C11        30.3296  -43.1355  -52.1399 C.ar      11 UNK        -0.0871 
     12 C12        29.2909  -42.7418  -52.9856 C.ar      11 UNK        -0.1008 
     13 C13        29.5530  -42.3510  -54.3011 C.ar      11 UNK        -0.0735 
     14 C14        30.8726  -42.3288  -54.7619 C.ar      11 UNK        -0.0945 
     15 C15        28.4068  -41.9415  -55.2133 C.3       11 UNK         0.0169 
     16 S16        27.2587  -43.3264  -55.4699 S.3       11 UNK        -0.2669 
     17 C17        26.0335  -42.5861  -56.6040 C.3       11 UNK        -0.0850 
     18 CA         26.0945  -43.1764  -58.0375 C.3       10 UNK         0.0855 
     19 C          27.2751  -42.5913  -58.8698 C.2       10 UNK         0.5543 
     20 N          28.1776  -43.3922  -59.4237 N.am      10 UNK        -0.7343 
     21 O          27.3647  -41.3762  -59.0278 O.2       10 UNK        -0.5027 
     22 N          26.0220  -44.6436  -58.0026 N.am      10 UNK        -0.4495 
     23 C          25.5906  -45.4289  -58.9937 C.2       10 UNK         0.4903 
     24 O          25.0966  -45.0032  -60.0393 O.2       10 UNK        -0.4860 
     25 CA         25.7509  -46.9465  -58.7684 C.3       9 UNK         0.0227 
     26 CB         25.6344  -47.7564  -60.0765 C.3       9 UNK        -0.1964 
     27 N          26.9828  -47.3138  -58.0534 N.am      9 UNK        -0.4231 
     28 C          28.2470  -47.0216  -58.4065 C.2       9 UNK         0.5014 
     29 O          28.5404  -46.3047  -59.3641 O.2       9 UNK        -0.5270 
     30 CA         29.3878  -47.6198  -57.5596 C.3       8 UNK         0.0284 
     31 CB         30.0430  -46.5375  -56.6848 C.3       8 UNK        -0.1977 
     32 N          28.9746  -48.7448  -56.7165 N.am      8 UNK        -0.4342 
     33 C          28.5872  -49.9461  -57.1699 C.2       8 UNK         0.5039 
     34 O          28.6102  -50.2713  -58.3571 O.2       8 UNK        -0.5547 
     35 CA         28.0495  -50.9436  -56.1294 C.3       7 UNK         0.0281 
     36 CB         29.1578  -51.9075  -55.6730 C.3       7 UNK        -0.1963 
     37 N          27.4493  -50.2862  -54.9630 N.am      7 UNK        -0.4444 
     38 C          26.3010  -49.5925  -54.9838 C.2       7 UNK         0.5104 
     39 O          25.6173  -49.4296  -55.9945 O.2       7 UNK        -0.5100 
     40 CA         25.8641  -48.9386  -53.6605 C.3       6 UNK         0.0396 
     41 CB         25.1393  -49.9571  -52.7666 C.3       6 UNK        -0.1801 
     42 N          26.9879  -48.3511  -52.9261 N.am      6 UNK        -0.4747 
     43 C          27.6802  -47.2762  -53.3360 C.2       6 UNK         0.5012 
     44 O          27.3904  -46.6309  -54.3416 O.2       6 UNK        -0.5003 
     45 CA         28.9344  -46.8976  -52.5172 C.3       5 UNK         0.0782 
     46 C46        28.5776  -45.8935  -51.3944 C.3       11 UNK        -0.0868 
     47 S47        30.0565  -45.3467  -50.4703 S.3       11 UNK        -0.2515 
     48 C48        30.0326  -43.5412  -50.7032 C.3       11 UNK         0.0199 
     49 N          29.6259  -48.0818  -51.9870 N.am      5 UNK        -0.4607 
     50 C          30.1746  -49.0447  -52.7341 C.2       4 UNK         0.5031 
     51 O          30.1526  -49.0525  -53.9681 O.2       4 UNK        -0.5119 
     52 CA         30.7861  -50.2288  -51.9789 C.3       4 UNK         0.0263 
     53 CB         29.6856  -51.1810  -51.4711 C.3       4 UNK        -0.1967 
     54 N          31.6704  -50.9285  -52.8999 N.am      4 UNK        -0.4237 
     55 C          32.6380  -51.7968  -52.5863 C.2       3 UNK         0.4908 
     56 O          32.8821  -52.1679  -51.4376 O.2       3 UNK        -0.5102 
     57 CA         33.4824  -52.3486  -53.7532 C.3       3 UNK         0.0241 
     58 CB         32.9873  -53.7483  -54.1539 C.3       3 UNK        -0.1971 
     59 N          33.4831  -51.4830  -54.9393 N.am      3 UNK        -0.4139 
     60 C          34.0366  -50.2633  -54.9913 C.2       2 UNK         0.5016 
     61 O          34.6869  -49.7736  -54.0642 O.2       2 UNK        -0.5319 
     62 CA         33.8118  -49.4499  -56.2764 C.3       2 UNK         0.0286 
     63 CB         32.4232  -49.6790  -56.9099 C.3       2 UNK        -0.1963 
     64 N          33.9908  -48.0355  -55.9606 N.am      2 UNK        -0.4790 
     65 C          34.3163  -47.0633  -56.8151 C.2       1 UNK         0.5024 
     66 O          34.4445  -47.2474  -58.0264 O.2       1 UNK        -0.4888 
     67 H67        35.3789  -45.2668  -51.8061 H         1 UNK         0.0892 
     68 H68        36.0132  -46.8813  -52.1377 H         1 UNK         0.0892 
     69 H69        36.7699  -45.4663  -52.8741 H         1 UNK         0.0892 
     70 H70        36.2515  -45.3154  -55.0202 H         1 UNK         0.3107 
     71 H71        35.2769  -45.1955  -56.9444 H         1 UNK         0.0773 
     72 H72        32.7446  -44.9230  -57.1770 H         1 UNK         0.0680 
     73 H73        32.6062  -45.0717  -55.4479 H         1 UNK         0.0680 
     74 H74        33.7415  -41.6191  -54.1831 H         1 UNK         0.0650 
     75 H75        34.0083  -43.2913  -53.7741 H         1 UNK         0.0650 
     76 H76        32.4504  -43.4132  -51.9561 H         1 UNK         0.1397 
     77 H77        28.2707  -42.7444  -52.6265 H         1 UNK         0.1363 
     78 H78        31.0767  -42.0030  -55.7722 H         1 UNK         0.1355 
     79 H79        27.8727  -41.1015  -54.7669 H         1 UNK         0.0707 
     80 H80        28.7804  -41.6017  -56.1807 H         1 UNK         0.0707 
     81 H81        25.0452  -42.7764  -56.1827 H         1 UNK         0.1034 
     82 H82        26.1328  -41.4990  -56.6178 H         1 UNK         0.1034 
     83 H83        25.1965  -42.8278  -58.5511 H         1 UNK         0.0482 
     84 H84        28.1249  -44.4012  -59.3236 H         1 UNK         0.3460 
     85 H85        28.9256  -42.9861  -59.9617 H         1 UNK         0.3460 
     86 H86        26.4330  -45.0733  -57.1853 H         1 UNK         0.2989 
     87 H87        24.9258  -47.2457  -58.1205 H         1 UNK         0.0559 
     88 H88        24.6678  -47.5944  -60.5552 H         1 UNK         0.0848 
     89 H89        25.7263  -48.8264  -59.8892 H         1 UNK         0.0848 
     90 H90        26.4054  -47.4748  -60.7946 H         1 UNK         0.0848 
     91 H91        26.8486  -47.8982  -57.2374 H         1 UNK         0.3144 
     92 H92        30.1397  -47.9898  -58.2589 H         1 UNK         0.0727 
     93 H93        29.3347  -46.0948  -55.9851 H         1 UNK         0.0790 
     94 H94        30.4311  -45.7256  -57.3006 H         1 UNK         0.0790 
     95 H95        30.8782  -46.9389  -56.1099 H         1 UNK         0.0790 
     96 H96        29.0055  -48.6020  -55.7130 H         1 UNK         0.3215 
     97 H97        27.2691  -51.5322  -56.6170 H         1 UNK         0.0863 
     98 H98        28.7805  -52.6419  -54.9612 H         1 UNK         0.0808 
     99 H99        29.9882  -51.3809  -55.2060 H         1 UNK         0.0808 
    100 H100       29.5634  -52.4596  -56.5219 H         1 UNK         0.0808 
    101 H101       27.9751  -50.3182  -54.1028 H         1 UNK         0.3118 
    102 H102       25.1607  -48.1383  -53.9009 H         1 UNK         0.0546 
    103 H103       25.7941  -50.7765  -52.4676 H         1 UNK         0.0828 
    104 H104       24.2872  -50.3954  -53.2883 H         1 UNK         0.0828 
    105 H105       24.7544  -49.4871  -51.8614 H         1 UNK         0.0828 
    106 H106       27.2840  -48.8195  -52.0821 H         1 UNK         0.3005 
    107 H107       29.6209  -46.4020  -53.2090 H         1 UNK         0.1257 
    108 H108       27.8823  -46.3433  -50.6830 H         1 UNK         0.0775 
    109 H109       28.0623  -45.0258  -51.8085 H         1 UNK         0.0775 
    110 H110       29.0678  -43.1471  -50.3793 H         1 UNK         0.0840 
    111 H111       30.7762  -43.0937  -50.0421 H         1 UNK         0.0840 
    112 H112       29.6982  -48.1356  -50.9812 H         1 UNK         0.2987 
    113 H113       31.3721  -49.8470  -51.1403 H         1 UNK         0.0785 
    114 H114       28.9974  -50.6688  -50.7978 H         1 UNK         0.0798 
    115 H115       30.1096  -52.0176  -50.9157 H         1 UNK         0.0798 
    116 H116       29.0980  -51.5932  -52.2922 H         1 UNK         0.0798 
    117 H117       31.5641  -50.6273  -53.8601 H         1 UNK         0.3079 
    118 H118       34.5116  -52.4356  -53.3982 H         1 UNK         0.0794 
    119 H119       33.6198  -54.1884  -54.9251 H         1 UNK         0.0786 
    120 H120       31.9637  -53.7229  -54.5305 H         1 UNK         0.0786 
    121 H121       33.0028  -54.4268  -53.2996 H         1 UNK         0.0786 
    122 H122       32.9877  -51.8250  -55.7498 H         1 UNK         0.3032 
    123 H123       34.5846  -49.7525  -56.9865 H         1 UNK         0.1094 
    124 H124       31.6250  -49.4559  -56.2029 H         1 UNK         0.0794 
    125 H125       32.2775  -49.0447  -57.7838 H         1 UNK         0.0794 
    126 H126       32.2929  -50.7069  -57.2490 H         1 UNK         0.0794 
    127 H127       33.9280  -47.7986  -54.9714 H         1 UNK         0.3016 
@<TRIPOS>BOND
     1    1    2 1    
     2    1   67 1    
     3    1   68 1    
     4    1   69 1    
     5    2    3 2    
     6    2    4 am   BACKBONE|DICT|INTERRES
     7    4    5 1    
     8    4   70 1    
     9    5    6 1    
    10    5   65 1    
    11    5   71 1    
    12    6    7 1    
    13    6   72 1    
    14    6   73 1    
    15    7    8 1    
    16    8    9 1    
    17    8   74 1    
    18    8   75 1    
    19    9   10 ar   
    20    9   14 ar   
    21   10   11 ar   
    22   10   76 1    
    23   11   12 ar   
    24   11   48 1    
    25   12   13 ar   
    26   12   77 1    
    27   13   14 ar   
    28   13   15 1    
    29   14   78 1    
    30   15   16 1    
    31   15   79 1    
    32   15   80 1    
    33   16   17 1    
    34   17   18 1    
    35   17   81 1    
    36   17   82 1    
    37   18   19 1    
    38   18   22 1    
    39   18   83 1    
    40   19   20 am   BACKBONE|DICT|INTERRES
    41   19   21 2    
    42   20   84 1    
    43   20   85 1    
    44   22   23 am   BACKBONE|DICT|INTERRES
    45   22   86 1    
    46   23   24 2    
    47   23   25 1    
    48   25   26 1    
    49   25   27 1    
    50   25   87 1    
    51   26   88 1    
    52   26   89 1    
    53   26   90 1    
    54   27   28 am   BACKBONE|DICT|INTERRES
    55   27   91 1    
    56   28   29 2    
    57   28   30 1    
    58   30   31 1    
    59   30   32 1    
    60   30   92 1    
    61   31   93 1    
    62   31   94 1    
    63   31   95 1    
    64   32   33 am   BACKBONE|DICT|INTERRES
    65   32   96 1    
    66   33   34 2    
    67   33   35 1    
    68   35   36 1    
    69   35   37 1    
    70   35   97 1    
    71   36   98 1    
    72   36   99 1    
    73   36  100 1    
    74   37   38 am   BACKBONE|DICT|INTERRES
    75   37  101 1    
    76   38   39 2    
    77   38   40 1    
    78   40   41 1    
    79   40   42 1    
    80   40  102 1    
    81   41  103 1    
    82   41  104 1    
    83   41  105 1    
    84   42   43 am   BACKBONE|DICT|INTERRES
    85   42  106 1    
    86   43   44 2    
    87   43   45 1    
    88   45   46 1    
    89   45   49 1    
    90   45  107 1    
    91   46   47 1    
    92   46  108 1    
    93   46  109 1    
    94   47   48 1    
    95   48  110 1    
    96   48  111 1    
    97   49   50 am   BACKBONE|DICT|INTERRES
    98   49  112 1    
    99   50   51 2    
   100   50   52 1    
   101   52   53 1    
   102   52   54 1    
   103   52  113 1    
   104   53  114 1    
   105   53  115 1    
   106   53  116 1    
   107   54   55 am   BACKBONE|DICT|INTERRES
   108   54  117 1    
   109   55   56 2    
   110   55   57 1    
   111   57   58 1    
   112   57   59 1    
   113   57  118 1    
   114   58  119 1    
   115   58  120 1    
   116   58  121 1    
   117   59   60 am   BACKBONE|DICT|INTERRES
   118   59  122 1    
   119   60   61 2    
   120   60   62 1    
   121   62   63 1    
   122   62   64 1    
   123   62  123 1    
   124   63  124 1    
   125   63  125 1    
   126   63  126 1    
   127   64   65 am   BACKBONE|DICT|INTERRES
   128   64  127 1    
   129   65   66 2    
@<TRIPOS>SUBSTRUCTURE
     1 UNK         1 GROUP             0       ****    0 ROOT    
