@<TRIPOS>MOLECULE
3R134
127   129    1
SMALL
USER_CHARGES


@<TRIPOS>ATOM
      1 CA         29.0099  -44.3536  -50.6837 C.3       0 UNK        -0.1968 
      2 C          30.4108  -44.7621  -50.2520 C.2       0 UNK         0.4852 
      3 O          30.6422  -44.9989  -49.0661 O.2       0 UNK        -0.5359 
      4 N          31.3442  -44.8536  -51.2084 N.am      1 UNK        -0.4300 
      5 CA         32.7589  -45.1923  -50.9892 C.3       1 UNK         0.0863 
      6 C6         33.6432  -44.7182  -52.1704 C.3       11 UNK        -0.0953 
      7 S7         33.5364  -42.9157  -52.4156 S.3       11 UNK        -0.2369 
      8 C8         34.1898  -42.7399  -54.1073 C.3       11 UNK         0.0226 
      9 C9         33.2586  -43.2838  -55.1869 C.ar      11 UNK        -0.0699 
     10 C10        33.7747  -44.0794  -56.2137 C.ar      11 UNK        -0.0804 
     11 C11        32.9536  -44.5250  -57.2541 C.ar      11 UNK        -0.0871 
     12 C12        31.5916  -44.2022  -57.2429 C.ar      11 UNK        -0.1008 
     13 C13        31.0595  -43.4069  -56.2204 C.ar      11 UNK        -0.0735 
     14 C14        31.9024  -42.9421  -55.2055 C.ar      11 UNK        -0.0945 
     15 C15        29.5924  -42.9923  -56.2371 C.3       11 UNK         0.0169 
     16 S16        28.7101  -43.5222  -54.7327 S.3       11 UNK        -0.2669 
     17 C17        27.1254  -42.6302  -54.8913 C.3       11 UNK        -0.0850 
     18 CA         25.9143  -43.5707  -55.1328 C.3       10 UNK         0.0855 
     19 C          24.5767  -42.7869  -54.9796 C.2       10 UNK         0.5543 
     20 N          23.7815  -42.6102  -56.0281 N.am      10 UNK        -0.7343 
     21 O          24.2557  -42.3317  -53.8846 O.2       10 UNK        -0.5027 
     22 N          26.0506  -44.3216  -56.3927 N.am      10 UNK        -0.4495 
     23 C          25.3571  -45.4220  -56.7140 C.2       10 UNK         0.4903 
     24 O          24.5100  -45.9382  -55.9834 O.2       10 UNK        -0.4860 
     25 CA         25.6303  -46.0490  -58.0891 C.3       9 UNK         0.0227 
     26 CB         26.6456  -45.2766  -58.9603 C.3       9 UNK        -0.1964 
     27 N          26.0798  -47.4293  -57.9107 N.am      9 UNK        -0.4231 
     28 C          25.7671  -48.4462  -58.7257 C.2       9 UNK         0.5014 
     29 O          25.0123  -48.3261  -59.6930 O.2       9 UNK        -0.5270 
     30 CA         26.4020  -49.8290  -58.4671 C.3       8 UNK         0.0284 
     31 CB         27.3228  -50.2203  -59.6360 C.3       8 UNK        -0.1977 
     32 N          27.1661  -49.9202  -57.2221 N.am      8 UNK        -0.4342 
     33 C          26.6371  -50.0743  -56.0015 C.2       8 UNK         0.5039 
     34 O          25.4324  -50.2133  -55.7887 O.2       8 UNK        -0.5547 
     35 CA         27.6180  -50.0315  -54.8145 C.3       7 UNK         0.0281 
     36 CB         28.1940  -51.4276  -54.5305 C.3       7 UNK        -0.1963 
     37 N          28.7171  -49.0826  -55.0173 N.am      7 UNK        -0.4444 
     38 C          28.5625  -47.7609  -55.1762 C.2       7 UNK         0.5104 
     39 O          27.4770  -47.1903  -55.1099 O.2       7 UNK        -0.5100 
     40 CA         29.8156  -46.9523  -55.5317 C.3       6 UNK         0.0396 
     41 CB         30.6380  -46.6152  -54.2793 C.3       6 UNK        -0.1801 
     42 N          30.6468  -47.6533  -56.5069 N.am      6 UNK        -0.4747 
     43 C          30.3589  -47.7524  -57.8126 C.2       6 UNK         0.5012 
     44 O          29.3772  -47.2314  -58.3389 O.2       6 UNK        -0.5003 
     45 CA         31.3154  -48.5964  -58.6780 C.3       5 UNK         0.0782 
     46 C46        32.4220  -47.7278  -59.3222 C.3       11 UNK        -0.0868 
     47 S47        33.6554  -47.0767  -58.1349 S.3       11 UNK        -0.2515 
     48 C48        33.5679  -45.2804  -58.4252 C.3       11 UNK         0.0199 
     49 N          31.8678  -49.7451  -57.9553 N.am      5 UNK        -0.4607 
     50 C          31.1506  -50.7938  -57.5314 C.2       4 UNK         0.5031 
     51 O          29.9461  -50.9282  -57.7434 O.2       4 UNK        -0.5119 
     52 CA         31.8941  -51.8346  -56.6743 C.3       4 UNK         0.0263 
     53 CB         32.6071  -52.8611  -57.5684 C.3       4 UNK        -0.1967 
     54 N          32.8568  -51.2364  -55.7391 N.am      4 UNK        -0.4237 
     55 C          32.5269  -50.3540  -54.7864 C.2       3 UNK         0.4908 
     56 O          31.3741  -49.9565  -54.6026 O.2       3 UNK        -0.5102 
     57 CA         33.6761  -49.7672  -53.9502 C.3       3 UNK         0.0241 
     58 CB         34.4270  -48.6922  -54.7551 C.3       3 UNK        -0.1971 
     59 N          33.1605  -49.1503  -52.7289 N.am      3 UNK        -0.4139 
     60 C          32.7076  -49.8109  -51.6563 C.2       2 UNK         0.5016 
     61 O          32.8376  -51.0269  -51.5024 O.2       2 UNK        -0.5319 
     62 CA         31.9412  -48.9901  -50.5974 C.3       2 UNK         0.0286 
     63 CB         32.3631  -49.3547  -49.1579 C.3       2 UNK        -0.1963 
     64 N          31.9612  -47.5317  -50.8115 N.am      2 UNK        -0.4790 
     65 C          33.0033  -46.6915  -50.6947 C.2       1 UNK         0.5024 
     66 O          34.1389  -47.0594  -50.3933 O.2       1 UNK        -0.4888 
     67 H67        28.2924  -45.1284  -50.4148 H         1 UNK         0.0892 
     68 H68        28.7181  -43.4303  -50.1840 H         1 UNK         0.0892 
     69 H69        28.9444  -44.1908  -51.7590 H         1 UNK         0.0892 
     70 H70        31.1057  -44.5994  -52.1562 H         1 UNK         0.3107 
     71 H71        33.0896  -44.6576  -50.0959 H         1 UNK         0.0773 
     72 H72        34.6931  -44.9618  -51.9959 H         1 UNK         0.0680 
     73 H73        33.3579  -45.2267  -53.0928 H         1 UNK         0.0680 
     74 H74        35.1666  -43.2240  -54.1546 H         1 UNK         0.0650 
     75 H75        34.3611  -41.6808  -54.3033 H         1 UNK         0.0650 
     76 H76        34.8283  -44.3235  -56.2257 H         1 UNK         0.1397 
     77 H77        30.9535  -44.5456  -58.0459 H         1 UNK         0.1363 
     78 H78        31.4992  -42.3058  -54.4297 H         1 UNK         0.1355 
     79 H79        29.5409  -41.9062  -56.3251 H         1 UNK         0.0707 
     80 H80        29.0834  -43.4034  -57.1098 H         1 UNK         0.0707 
     81 H81        26.9901  -42.0687  -53.9646 H         1 UNK         0.1034 
     82 H82        27.1912  -41.8814  -55.6825 H         1 UNK         0.1034 
     83 H83        25.9136  -44.3086  -54.3277 H         1 UNK         0.0482 
     84 H84        22.9177  -42.1034  -55.9140 H         1 UNK         0.3460 
     85 H85        24.0341  -42.9825  -56.9289 H         1 UNK         0.3460 
     86 H86        26.7278  -43.9675  -57.0497 H         1 UNK         0.2989 
     87 H87        24.6702  -46.0440  -58.6091 H         1 UNK         0.0559 
     88 H88        26.3097  -44.2577  -59.1567 H         1 UNK         0.0848 
     89 H89        26.7732  -45.7583  -59.9300 H         1 UNK         0.0848 
     90 H90        27.6295  -45.2255  -58.4927 H         1 UNK         0.0848 
     91 H91        26.6519  -47.6023  -57.0913 H         1 UNK         0.3144 
     92 H92        25.5860  -50.5533  -58.4240 H         1 UNK         0.0727 
     93 H93        27.7340  -51.2209  -59.5003 H         1 UNK         0.0790 
     94 H94        28.1573  -49.5256  -59.7381 H         1 UNK         0.0790 
     95 H95        26.7805  -50.2207  -60.5825 H         1 UNK         0.0790 
     96 H96        28.1772  -49.8984  -57.3082 H         1 UNK         0.3215 
     97 H97        27.0586  -49.7048  -53.9353 H         1 UNK         0.0863 
     98 H98        28.8534  -51.4162  -53.6623 H         1 UNK         0.0808 
     99 H99        28.7645  -51.8084  -55.3779 H         1 UNK         0.0808 
    100 H100       27.3971  -52.1435  -54.3252 H         1 UNK         0.0808 
    101 H101       29.6629  -49.4619  -55.0275 H         1 UNK         0.3118 
    102 H102       29.4872  -46.0157  -55.9840 H         1 UNK         0.0546 
    103 H103       30.0322  -46.0539  -53.5683 H         1 UNK         0.0828 
    104 H104       31.5010  -45.9993  -54.5323 H         1 UNK         0.0828 
    105 H105       30.9924  -47.5092  -53.7692 H         1 UNK         0.0828 
    106 H106       31.4495  -48.1516  -56.1512 H         1 UNK         0.3005 
    107 H107       30.7071  -48.9987  -59.4917 H         1 UNK         0.1257 
    108 H108       32.9633  -48.3248  -60.0578 H         1 UNK         0.0775 
    109 H109       31.9691  -46.9160  -59.8933 H         1 UNK         0.0775 
    110 H110       34.5824  -44.9169  -58.5963 H         1 UNK         0.0840 
    111 H111       33.0260  -45.0523  -59.3433 H         1 UNK         0.0840 
    112 H112       32.8515  -49.7006  -57.7333 H         1 UNK         0.2987 
    113 H113       31.1448  -52.3624  -56.0807 H         1 UNK         0.0785 
    114 H114       33.0559  -53.6591  -56.9766 H         1 UNK         0.0798 
    115 H115       33.3950  -52.4012  -58.1662 H         1 UNK         0.0798 
    116 H116       31.9049  -53.3295  -58.2596 H         1 UNK         0.0798 
    117 H117       33.8234  -51.5122  -55.8400 H         1 UNK         0.3079 
    118 H118       34.3659  -50.5700  -53.6813 H         1 UNK         0.0794 
    119 H119       34.8586  -49.1069  -55.6668 H         1 UNK         0.0786 
    120 H120       35.2484  -48.2680  -54.1772 H         1 UNK         0.0786 
    121 H121       33.7703  -47.8720  -55.0500 H         1 UNK         0.0786 
    122 H122       32.9958  -48.1571  -52.7606 H         1 UNK         0.3032 
    123 H123       30.8973  -49.2880  -50.7103 H         1 UNK         0.1094 
    124 H124       33.4243  -49.1745  -48.9851 H         1 UNK         0.0794 
    125 H125       31.7998  -48.7812  -48.4217 H         1 UNK         0.0794 
    126 H126       32.1796  -50.4101  -48.9526 H         1 UNK         0.0794 
    127 H127       31.0712  -47.1193  -51.0538 H         1 UNK         0.3016 
@<TRIPOS>BOND
     1    1    2 1    
     2    1   67 1    
     3    1   68 1    
     4    1   69 1    
     5    2    3 2    
     6    2    4 am   BACKBONE|DICT|INTERRES
     7    4    5 1    
     8    4   70 1    
     9    5    6 1    
    10    5   65 1    
    11    5   71 1    
    12    6    7 1    
    13    6   72 1    
    14    6   73 1    
    15    7    8 1    
    16    8    9 1    
    17    8   74 1    
    18    8   75 1    
    19    9   10 ar   
    20    9   14 ar   
    21   10   11 ar   
    22   10   76 1    
    23   11   12 ar   
    24   11   48 1    
    25   12   13 ar   
    26   12   77 1    
    27   13   14 ar   
    28   13   15 1    
    29   14   78 1    
    30   15   16 1    
    31   15   79 1    
    32   15   80 1    
    33   16   17 1    
    34   17   18 1    
    35   17   81 1    
    36   17   82 1    
    37   18   19 1    
    38   18   22 1    
    39   18   83 1    
    40   19   20 am   BACKBONE|DICT|INTERRES
    41   19   21 2    
    42   20   84 1    
    43   20   85 1    
    44   22   23 am   BACKBONE|DICT|INTERRES
    45   22   86 1    
    46   23   24 2    
    47   23   25 1    
    48   25   26 1    
    49   25   27 1    
    50   25   87 1    
    51   26   88 1    
    52   26   89 1    
    53   26   90 1    
    54   27   28 am   BACKBONE|DICT|INTERRES
    55   27   91 1    
    56   28   29 2    
    57   28   30 1    
    58   30   31 1    
    59   30   32 1    
    60   30   92 1    
    61   31   93 1    
    62   31   94 1    
    63   31   95 1    
    64   32   33 am   BACKBONE|DICT|INTERRES
    65   32   96 1    
    66   33   34 2    
    67   33   35 1    
    68   35   36 1    
    69   35   37 1    
    70   35   97 1    
    71   36   98 1    
    72   36   99 1    
    73   36  100 1    
    74   37   38 am   BACKBONE|DICT|INTERRES
    75   37  101 1    
    76   38   39 2    
    77   38   40 1    
    78   40   41 1    
    79   40   42 1    
    80   40  102 1    
    81   41  103 1    
    82   41  104 1    
    83   41  105 1    
    84   42   43 am   BACKBONE|DICT|INTERRES
    85   42  106 1    
    86   43   44 2    
    87   43   45 1    
    88   45   46 1    
    89   45   49 1    
    90   45  107 1    
    91   46   47 1    
    92   46  108 1    
    93   46  109 1    
    94   47   48 1    
    95   48  110 1    
    96   48  111 1    
    97   49   50 am   BACKBONE|DICT|INTERRES
    98   49  112 1    
    99   50   51 2    
   100   50   52 1    
   101   52   53 1    
   102   52   54 1    
   103   52  113 1    
   104   53  114 1    
   105   53  115 1    
   106   53  116 1    
   107   54   55 am   BACKBONE|DICT|INTERRES
   108   54  117 1    
   109   55   56 2    
   110   55   57 1    
   111   57   58 1    
   112   57   59 1    
   113   57  118 1    
   114   58  119 1    
   115   58  120 1    
   116   58  121 1    
   117   59   60 am   BACKBONE|DICT|INTERRES
   118   59  122 1    
   119   60   61 2    
   120   60   62 1    
   121   62   63 1    
   122   62   64 1    
   123   62  123 1    
   124   63  124 1    
   125   63  125 1    
   126   63  126 1    
   127   64   65 am   BACKBONE|DICT|INTERRES
   128   64  127 1    
   129   65   66 2    
@<TRIPOS>SUBSTRUCTURE
     1 UNK         1 GROUP             0       ****    0 ROOT    
