@<TRIPOS>MOLECULE
3R134
127   129    1
SMALL
USER_CHARGES


@<TRIPOS>ATOM
      1 CA         28.5493  -46.2304  -51.8632 C.3       0 UNK        -0.1968 
      2 C          29.9675  -45.9230  -51.4115 C.2       0 UNK         0.4852 
      3 O          30.2652  -46.0314  -50.2208 O.2       0 UNK        -0.5359 
      4 N          30.8498  -45.5500  -52.3482 N.am      1 UNK        -0.4300 
      5 CA         32.2494  -45.1706  -52.1100 C.3       1 UNK         0.0863 
      6 C6         32.7985  -44.2720  -53.2499 C.3       11 UNK        -0.0953 
      7 S7         31.8584  -42.7173  -53.4395 S.3       11 UNK        -0.2369 
      8 C8         32.6817  -41.9362  -54.8679 C.3       11 UNK         0.0226 
      9 C9         32.2768  -42.5966  -56.1774 C.ar      11 UNK        -0.0699 
     10 C10        32.9961  -43.6936  -56.6544 C.ar      11 UNK        -0.0804 
     11 C11        32.5646  -44.3896  -57.7871 C.ar      11 UNK        -0.0871 
     12 C12        31.4539  -43.9248  -58.4955 C.ar      11 UNK        -0.1008 
     13 C13        30.7582  -42.7933  -58.0620 C.ar      11 UNK        -0.0735 
     14 C14        31.1684  -42.1364  -56.8961 C.ar      11 UNK        -0.0945 
     15 C15        29.5576  -42.2997  -58.8554 C.3       11 UNK         0.0169 
     16 S16        28.0397  -43.2048  -58.4165 S.3       11 UNK        -0.2669 
     17 C17        27.6528  -42.4774  -56.7887 C.3       11 UNK        -0.0850 
     18 CA         27.9687  -43.4392  -55.6058 C.3       10 UNK         0.0855 
     19 C          27.9546  -42.6931  -54.2345 C.2       10 UNK         0.5543 
     20 N          27.4328  -43.2759  -53.1627 N.am      10 UNK        -0.7343 
     21 O          28.4463  -41.5723  -54.1323 O.2       10 UNK        -0.5027 
     22 N          27.1798  -44.6875  -55.6571 N.am      10 UNK        -0.4495 
     23 C          25.8455  -44.7833  -55.5498 C.2       10 UNK         0.4903 
     24 O          25.0963  -43.8214  -55.3739 O.2       10 UNK        -0.4860 
     25 CA         25.2596  -46.2042  -55.6281 C.3       9 UNK         0.0227 
     26 CB         23.7188  -46.2318  -55.7183 C.3       9 UNK        -0.1964 
     27 N          25.8708  -46.9988  -56.6954 N.am      9 UNK        -0.4231 
     28 C          25.8088  -46.8051  -58.0221 C.2       9 UNK         0.5014 
     29 O          25.1547  -45.9145  -58.5652 O.2       9 UNK        -0.5270 
     30 CA         26.6166  -47.7823  -58.9003 C.3       8 UNK         0.0284 
     31 CB         27.8952  -47.1047  -59.4239 C.3       8 UNK        -0.1977 
     32 N          26.9757  -49.0165  -58.1922 N.am      8 UNK        -0.4342 
     33 C          26.1244  -50.0182  -57.9243 C.2       8 UNK         0.5039 
     34 O          24.9729  -50.0730  -58.3566 O.2       8 UNK        -0.5547 
     35 CA         26.6305  -51.1252  -56.9833 C.3       7 UNK         0.0281 
     36 CB         27.2791  -52.2659  -57.7841 C.3       7 UNK        -0.1963 
     37 N          27.5747  -50.6091  -55.9845 N.am      7 UNK        -0.4444 
     38 C          27.2048  -49.8962  -54.9082 C.2       7 UNK         0.5104 
     39 O          26.0311  -49.6636  -54.6219 O.2       7 UNK        -0.5100 
     40 CA         28.3105  -49.2938  -54.0202 C.3       6 UNK         0.0396 
     41 CB         28.6210  -50.2177  -52.8336 C.3       6 UNK        -0.1801 
     42 N          29.5510  -48.9951  -54.7368 N.am      6 UNK        -0.4747 
     43 C          29.6726  -48.0951  -55.7252 C.2       6 UNK         0.5012 
     44 O          28.7728  -47.3126  -56.0333 O.2       6 UNK        -0.5003 
     45 CA         30.9991  -48.0803  -56.5225 C.3       5 UNK         0.0782 
     46 C46        31.8859  -46.9217  -56.0161 C.3       11 UNK        -0.0868 
     47 S47        33.5252  -46.8411  -56.8292 S.3       11 UNK        -0.2515 
     48 C48        33.2534  -45.6795  -58.2141 C.3       11 UNK         0.0199 
     49 N          31.7315  -49.3484  -56.4694 N.am      5 UNK        -0.4607 
     50 C          31.2793  -50.5777  -56.7411 C.2       4 UNK         0.5031 
     51 O          30.1759  -50.8015  -57.2356 O.2       4 UNK        -0.5119 
     52 CA         32.1740  -51.7563  -56.3065 C.3       4 UNK         0.0263 
     53 CB         32.8233  -52.4132  -57.5346 C.3       4 UNK        -0.1967 
     54 N          33.2227  -51.4034  -55.3341 N.am      4 UNK        -0.4237 
     55 C          33.0365  -50.8289  -54.1336 C.2       3 UNK         0.4908 
     56 O          31.9204  -50.5650  -53.6780 O.2       3 UNK        -0.5102 
     57 CA         34.3106  -50.4397  -53.3572 C.3       3 UNK         0.0241 
     58 CB         35.4364  -49.9319  -54.2823 C.3       3 UNK        -0.1971 
     59 N          34.0420  -49.3987  -52.3643 N.am      3 UNK        -0.4139 
     60 C          33.6263  -49.5966  -51.1105 C.2       2 UNK         0.5016 
     61 O          33.4055  -50.7098  -50.6307 O.2       2 UNK        -0.5319 
     62 CA         33.4631  -48.3524  -50.2151 C.3       2 UNK         0.0286 
     63 CB         34.8200  -47.9395  -49.6120 C.3       2 UNK        -0.1963 
     64 N          32.7854  -47.1911  -50.8163 N.am      2 UNK        -0.4790 
     65 C          33.1470  -46.4051  -51.8412 C.2       1 UNK         0.5024 
     66 O          34.1300  -46.6225  -52.5516 O.2       1 UNK        -0.4888 
     67 H67        28.2795  -47.2453  -51.5738 H         1 UNK         0.0892 
     68 H68        27.8503  -45.5472  -51.3822 H         1 UNK         0.0892 
     69 H69        28.4361  -46.1348  -52.9428 H         1 UNK         0.0892 
     70 H70        30.5445  -45.4690  -53.3060 H         1 UNK         0.3107 
     71 H71        32.2816  -44.5752  -51.1947 H         1 UNK         0.0773 
     72 H72        33.8409  -44.0069  -53.0628 H         1 UNK         0.0680 
     73 H73        32.7811  -44.8183  -54.1914 H         1 UNK         0.0680 
     74 H74        33.7641  -41.9753  -54.7359 H         1 UNK         0.0650 
     75 H75        32.4143  -40.8787  -54.8902 H         1 UNK         0.0650 
     76 H76        33.8569  -44.0489  -56.1049 H         1 UNK         0.1397 
     77 H77        31.1138  -44.4529  -59.3761 H         1 UNK         0.1363 
     78 H78        30.6159  -41.2798  -56.5354 H         1 UNK         0.1355 
     79 H79        29.7467  -42.4345  -59.9215 H         1 UNK         0.0707 
     80 H80        29.4108  -41.2282  -58.7106 H         1 UNK         0.0707 
     81 H81        28.2019  -41.5404  -56.6887 H         1 UNK         0.1034 
     82 H82        26.6004  -42.1911  -56.7807 H         1 UNK         0.1034 
     83 H83        29.0046  -43.7612  -55.7185 H         1 UNK         0.0482 
     84 H84        26.9764  -44.1683  -53.2418 H         1 UNK         0.3460 
     85 H85        27.4341  -42.7790  -52.2864 H         1 UNK         0.3460 
     86 H86        27.7130  -45.5365  -55.8125 H         1 UNK         0.2989 
     87 H87        25.5380  -46.6963  -54.6950 H         1 UNK         0.0559 
     88 H88        23.2688  -45.7566  -54.8459 H         1 UNK         0.0848 
     89 H89        23.3430  -47.2542  -55.7595 H         1 UNK         0.0848 
     90 H90        23.3528  -45.7031  -56.5988 H         1 UNK         0.0848 
     91 H91        26.4840  -47.7365  -56.3783 H         1 UNK         0.3144 
     92 H92        25.9945  -48.0451  -59.7586 H         1 UNK         0.0727 
     93 H93        28.5421  -46.7696  -58.6132 H         1 UNK         0.0790 
     94 H94        27.6491  -46.2238  -60.0187 H         1 UNK         0.0790 
     95 H95        28.4707  -47.7752  -60.0622 H         1 UNK         0.0790 
     96 H96        27.9089  -49.0683  -57.8100 H         1 UNK         0.3215 
     97 H97        25.7649  -51.5356  -56.4581 H         1 UNK         0.0863 
     98 H98        27.6551  -53.0505  -57.1274 H         1 UNK         0.0808 
     99 H99        28.1088  -51.9141  -58.3976 H         1 UNK         0.0808 
    100 H100       26.5540  -52.7258  -58.4569 H         1 UNK         0.0808 
    101 H101       28.5630  -50.7353  -56.1882 H         1 UNK         0.3118 
    102 H102       27.9186  -48.3552  -53.6297 H         1 UNK         0.0546 
    103 H103       29.0357  -51.1710  -53.1637 H         1 UNK         0.0828 
    104 H104       27.7200  -50.4333  -52.2578 H         1 UNK         0.0828 
    105 H105       29.3399  -49.7608  -52.1529 H         1 UNK         0.0828 
    106 H106       30.3550  -49.5724  -54.5043 H         1 UNK         0.3005 
    107 H107       30.7426  -47.8963  -57.5675 H         1 UNK         0.1257 
    108 H108       31.3607  -45.9712  -56.1153 H         1 UNK         0.0775 
    109 H109       32.0766  -47.0412  -54.9475 H         1 UNK         0.0775 
    110 H110       34.2149  -45.4363  -58.6678 H         1 UNK         0.0840 
    111 H111       32.6702  -46.1922  -58.9806 H         1 UNK         0.0840 
    112 H112       32.6655  -49.2759  -56.0952 H         1 UNK         0.2987 
    113 H113       31.5209  -52.4891  -55.8284 H         1 UNK         0.0785 
    114 H114       32.0678  -52.7133  -58.2624 H         1 UNK         0.0798 
    115 H115       33.3777  -53.3107  -57.2597 H         1 UNK         0.0798 
    116 H116       33.5103  -51.7333  -58.0402 H         1 UNK         0.0798 
    117 H117       34.1726  -51.5816  -55.6271 H         1 UNK         0.3079 
    118 H118       34.6654  -51.3365  -52.8452 H         1 UNK         0.0794 
    119 H119       36.2966  -49.5946  -53.7033 H         1 UNK         0.0786 
    120 H120       35.1072  -49.0934  -54.8983 H         1 UNK         0.0786 
    121 H121       35.8003  -50.7143  -54.9489 H         1 UNK         0.0786 
    122 H122       34.1724  -48.4324  -52.6555 H         1 UNK         0.3032 
    123 H123       32.8222  -48.6613  -49.3871 H         1 UNK         0.1094 
    124 H124       35.2874  -48.7776  -49.0931 H         1 UNK         0.0794 
    125 H125       35.5203  -47.6013  -50.3765 H         1 UNK         0.0794 
    126 H126       34.7026  -47.1354  -48.8855 H         1 UNK         0.0794 
    127 H127       31.9147  -46.9233  -50.3597 H         1 UNK         0.3016 
@<TRIPOS>BOND
     1    1    2 1    
     2    1   67 1    
     3    1   68 1    
     4    1   69 1    
     5    2    3 2    
     6    2    4 am   BACKBONE|DICT|INTERRES
     7    4    5 1    
     8    4   70 1    
     9    5    6 1    
    10    5   65 1    
    11    5   71 1    
    12    6    7 1    
    13    6   72 1    
    14    6   73 1    
    15    7    8 1    
    16    8    9 1    
    17    8   74 1    
    18    8   75 1    
    19    9   10 ar   
    20    9   14 ar   
    21   10   11 ar   
    22   10   76 1    
    23   11   12 ar   
    24   11   48 1    
    25   12   13 ar   
    26   12   77 1    
    27   13   14 ar   
    28   13   15 1    
    29   14   78 1    
    30   15   16 1    
    31   15   79 1    
    32   15   80 1    
    33   16   17 1    
    34   17   18 1    
    35   17   81 1    
    36   17   82 1    
    37   18   19 1    
    38   18   22 1    
    39   18   83 1    
    40   19   20 am   BACKBONE|DICT|INTERRES
    41   19   21 2    
    42   20   84 1    
    43   20   85 1    
    44   22   23 am   BACKBONE|DICT|INTERRES
    45   22   86 1    
    46   23   24 2    
    47   23   25 1    
    48   25   26 1    
    49   25   27 1    
    50   25   87 1    
    51   26   88 1    
    52   26   89 1    
    53   26   90 1    
    54   27   28 am   BACKBONE|DICT|INTERRES
    55   27   91 1    
    56   28   29 2    
    57   28   30 1    
    58   30   31 1    
    59   30   32 1    
    60   30   92 1    
    61   31   93 1    
    62   31   94 1    
    63   31   95 1    
    64   32   33 am   BACKBONE|DICT|INTERRES
    65   32   96 1    
    66   33   34 2    
    67   33   35 1    
    68   35   36 1    
    69   35   37 1    
    70   35   97 1    
    71   36   98 1    
    72   36   99 1    
    73   36  100 1    
    74   37   38 am   BACKBONE|DICT|INTERRES
    75   37  101 1    
    76   38   39 2    
    77   38   40 1    
    78   40   41 1    
    79   40   42 1    
    80   40  102 1    
    81   41  103 1    
    82   41  104 1    
    83   41  105 1    
    84   42   43 am   BACKBONE|DICT|INTERRES
    85   42  106 1    
    86   43   44 2    
    87   43   45 1    
    88   45   46 1    
    89   45   49 1    
    90   45  107 1    
    91   46   47 1    
    92   46  108 1    
    93   46  109 1    
    94   47   48 1    
    95   48  110 1    
    96   48  111 1    
    97   49   50 am   BACKBONE|DICT|INTERRES
    98   49  112 1    
    99   50   51 2    
   100   50   52 1    
   101   52   53 1    
   102   52   54 1    
   103   52  113 1    
   104   53  114 1    
   105   53  115 1    
   106   53  116 1    
   107   54   55 am   BACKBONE|DICT|INTERRES
   108   54  117 1    
   109   55   56 2    
   110   55   57 1    
   111   57   58 1    
   112   57   59 1    
   113   57  118 1    
   114   58  119 1    
   115   58  120 1    
   116   58  121 1    
   117   59   60 am   BACKBONE|DICT|INTERRES
   118   59  122 1    
   119   60   61 2    
   120   60   62 1    
   121   62   63 1    
   122   62   64 1    
   123   62  123 1    
   124   63  124 1    
   125   63  125 1    
   126   63  126 1    
   127   64   65 am   BACKBONE|DICT|INTERRES
   128   64  127 1    
   129   65   66 2    
@<TRIPOS>SUBSTRUCTURE
     1 UNK         1 GROUP             0       ****    0 ROOT    
