@<TRIPOS>MOLECULE
3R134
127   129    1
SMALL
USER_CHARGES


@<TRIPOS>ATOM
      1 CA         33.4927  -49.4496  -57.6277 C.3       0 UNK        -0.1968 
      2 C          33.4507  -48.8857  -56.2167 C.2       0 UNK         0.4852 
      3 O          32.9864  -49.5690  -55.3055 O.2       0 UNK        -0.5359 
      4 N          33.9404  -47.6517  -56.0254 N.am      1 UNK        -0.4300 
      5 CA         33.9001  -46.8896  -54.7662 C.3       1 UNK         0.0863 
      6 C6         34.5300  -45.4802  -54.9130 C.3       11 UNK        -0.0953 
      7 S7         33.9356  -44.5478  -56.3653 S.3       11 UNK        -0.2369 
      8 C8         33.5050  -42.9340  -55.6437 C.3       11 UNK         0.0226 
      9 C9         32.0421  -42.8722  -55.2337 C.ar      11 UNK        -0.0699 
     10 C10        31.6613  -43.0563  -53.9019 C.ar      11 UNK        -0.0804 
     11 C11        30.3149  -42.9698  -53.5326 C.ar      11 UNK        -0.0871 
     12 C12        29.3475  -42.7083  -54.5093 C.ar      11 UNK        -0.1008 
     13 C13        29.7171  -42.5036  -55.8463 C.ar      11 UNK        -0.0735 
     14 C14        31.0673  -42.5959  -56.1956 C.ar      11 UNK        -0.0945 
     15 C15        28.6991  -42.2148  -56.9508 C.3       11 UNK         0.0169 
     16 S16        27.1623  -41.3999  -56.4002 S.3       11 UNK        -0.2669 
     17 C17        26.2279  -41.3644  -57.9695 C.3       11 UNK        -0.0850 
     18 CA         24.9442  -42.2465  -57.9439 C.3       10 UNK         0.0855 
     19 C          24.0529  -42.0355  -59.2077 C.2       10 UNK         0.5543 
     20 N          23.3376  -43.0452  -59.6888 N.am      10 UNK        -0.7343 
     21 O          23.9799  -40.9324  -59.7444 O.2       10 UNK        -0.5027 
     22 N          25.1988  -43.6600  -57.5995 N.am      10 UNK        -0.4495 
     23 C          25.9312  -44.5331  -58.3031 C.2       10 UNK         0.4903 
     24 O          26.5248  -44.2625  -59.3495 O.2       10 UNK        -0.4860 
     25 CA         25.9512  -45.9741  -57.7667 C.3       9 UNK         0.0227 
     26 CB         24.8436  -46.8133  -58.4238 C.3       9 UNK        -0.1964 
     27 N          27.2403  -46.6278  -57.9920 N.am      9 UNK        -0.4231 
     28 C          28.3682  -46.3296  -57.3368 C.2       9 UNK         0.5014 
     29 O          28.4420  -45.4959  -56.4371 O.2       9 UNK        -0.5270 
     30 CA         29.6074  -47.1558  -57.7056 C.3       8 UNK         0.0284 
     31 CB         30.9109  -46.4815  -57.2459 C.3       8 UNK        -0.1977 
     32 N          29.4893  -48.4772  -57.0907 N.am      8 UNK        -0.4342 
     33 C          28.8086  -49.4964  -57.6320 C.2       8 UNK         0.5039 
     34 O          28.3585  -49.4876  -58.7788 O.2       8 UNK        -0.5547 
     35 CA         28.5114  -50.6856  -56.7113 C.3       7 UNK         0.0281 
     36 CB         29.7897  -51.4733  -56.3701 C.3       7 UNK        -0.1963 
     37 N          27.8626  -50.2103  -55.4876 N.am      7 UNK        -0.4444 
     38 C          26.5455  -49.9751  -55.3663 C.2       7 UNK         0.5104 
     39 O          25.7255  -50.2116  -56.2534 O.2       7 UNK        -0.5100 
     40 CA         26.0466  -49.3844  -54.0328 C.3       6 UNK         0.0396 
     41 CB         25.5782  -50.5077  -53.0940 C.3       6 UNK        -0.1801 
     42 N          27.0815  -48.5977  -53.3620 N.am      6 UNK        -0.4747 
     43 C          27.3648  -47.3126  -53.6241 C.2       6 UNK         0.5012 
     44 O          26.6166  -46.5870  -54.2756 O.2       6 UNK        -0.5003 
     45 CA         28.6967  -46.7455  -53.0657 C.3       5 UNK         0.0782 
     46 C46        28.4408  -45.5353  -52.1343 C.3       11 UNK        -0.0868 
     47 S47        29.9878  -44.8218  -51.4749 S.3       11 UNK        -0.2515 
     48 C48        29.9166  -43.1028  -52.0689 C.3       11 UNK         0.0199 
     49 N          29.5093  -47.7831  -52.4080 N.am      5 UNK        -0.4607 
     50 C          30.1633  -48.7582  -53.0474 C.2       4 UNK         0.5031 
     51 O          30.2125  -48.8507  -54.2749 O.2       4 UNK        -0.5119 
     52 CA         30.6878  -49.8967  -52.1683 C.3       4 UNK         0.0263 
     53 CB         29.5403  -50.9034  -51.9192 C.3       4 UNK        -0.1967 
     54 N          31.8276  -50.5520  -52.8086 N.am      4 UNK        -0.4237 
     55 C          32.5781  -51.5099  -52.2435 C.2       3 UNK         0.4908 
     56 O          32.3895  -51.9594  -51.1122 O.2       3 UNK        -0.5102 
     57 CA         33.7687  -52.0331  -53.0553 C.3       3 UNK         0.0241 
     58 CB         33.3183  -52.7510  -54.3409 C.3       3 UNK        -0.1971 
     59 N          34.6699  -50.9272  -53.3689 N.am      3 UNK        -0.4139 
     60 C          35.6318  -50.4844  -52.5451 C.2       2 UNK         0.5016 
     61 O          35.9395  -51.0416  -51.4903 O.2       2 UNK        -0.5319 
     62 CA         36.3902  -49.2082  -52.9531 C.3       2 UNK         0.0286 
     63 CB         37.7547  -49.5659  -53.5646 C.3       2 UNK        -0.1963 
     64 N          35.6516  -48.3672  -53.8963 N.am      2 UNK        -0.4790 
     65 C          34.5744  -47.6282  -53.5907 C.2       1 UNK         0.5024 
     66 O          34.1094  -47.5289  -52.4551 O.2       1 UNK        -0.4888 
     67 H67        34.0626  -50.3781  -57.6432 H         1 UNK         0.0892 
     68 H68        32.4807  -49.6646  -57.9703 H         1 UNK         0.0892 
     69 H69        33.9505  -48.7554  -58.3321 H         1 UNK         0.0892 
     70 H70        34.3074  -47.1380  -56.8142 H         1 UNK         0.3107 
     71 H71        32.8464  -46.7679  -54.5057 H         1 UNK         0.0773 
     72 H72        34.3410  -44.8993  -54.0084 H         1 UNK         0.0680 
     73 H73        35.6158  -45.5511  -55.0045 H         1 UNK         0.0680 
     74 H74        33.7011  -42.1615  -56.3888 H         1 UNK         0.0650 
     75 H75        34.1590  -42.7059  -54.8008 H         1 UNK         0.0650 
     76 H76        32.4118  -43.2561  -53.1493 H         1 UNK         0.1397 
     77 H77        28.3069  -42.6560  -54.2227 H         1 UNK         0.1363 
     78 H78        31.3652  -42.4541  -57.2256 H         1 UNK         0.1355 
     79 H79        29.1584  -41.5783  -57.7088 H         1 UNK         0.0707 
     80 H80        28.4487  -43.1496  -57.4495 H         1 UNK         0.0707 
     81 H81        25.9651  -40.3211  -58.1536 H         1 UNK         0.1034 
     82 H82        26.8725  -41.6539  -58.8009 H         1 UNK         0.1034 
     83 H83        24.3281  -41.8718  -57.1258 H         1 UNK         0.0482 
     84 H84        23.3770  -43.9518  -59.2530 H         1 UNK         0.3460 
     85 H85        22.7561  -42.8969  -60.4986 H         1 UNK         0.3460 
     86 H86        24.7439  -43.9843  -56.7581 H         1 UNK         0.2989 
     87 H87        25.7684  -45.9493  -56.6911 H         1 UNK         0.0559 
     88 H88        23.8599  -46.3817  -58.2351 H         1 UNK         0.0848 
     89 H89        24.8296  -47.8295  -58.0279 H         1 UNK         0.0848 
     90 H90        24.9712  -46.8754  -59.5055 H         1 UNK         0.0848 
     91 H91        27.2746  -47.3508  -58.6987 H         1 UNK         0.3144 
     92 H92        29.6453  -47.2447  -58.7935 H         1 UNK         0.0727 
     93 H93        31.0121  -46.4857  -56.1599 H         1 UNK         0.0790 
     94 H94        30.9507  -45.4405  -57.5699 H         1 UNK         0.0790 
     95 H95        31.7776  -46.9784  -57.6759 H         1 UNK         0.0790 
     96 H96        29.8033  -48.5603  -56.1257 H         1 UNK         0.3215 
     97 H97        27.8335  -51.3618  -57.2374 H         1 UNK         0.0863 
     98 H98        30.5405  -50.8579  -55.8751 H         1 UNK         0.0808 
     99 H99        30.2496  -51.8728  -57.2747 H         1 UNK         0.0808 
    100 H100       29.5714  -52.3190  -55.7180 H         1 UNK         0.0808 
    101 H101       28.4842  -49.9118  -54.7479 H         1 UNK         0.3118 
    102 H102       25.1890  -48.7437  -54.2495 H         1 UNK         0.0546 
    103 H103       26.3864  -51.1975  -52.8480 H         1 UNK         0.0828 
    104 H104       24.7817  -51.0928  -53.5559 H         1 UNK         0.0828 
    105 H105       25.1827  -50.1060  -52.1610 H         1 UNK         0.0828 
    106 H106       27.7084  -49.0980  -52.7515 H         1 UNK         0.3005 
    107 H107       29.2551  -46.3812  -53.9325 H         1 UNK         0.1257 
    108 H108       27.8162  -45.8274  -51.2882 H         1 UNK         0.0775 
    109 H109       27.8864  -44.7607  -52.6675 H         1 UNK         0.0775 
    110 H110       28.9203  -42.6937  -51.8940 H         1 UNK         0.0840 
    111 H111       30.5951  -42.5003  -51.4631 H         1 UNK         0.0840 
    112 H112       29.5080  -47.7663  -51.3979 H         1 UNK         0.2987 
    113 H113       31.0255  -49.4780  -51.2180 H         1 UNK         0.0785 
    114 H114       28.6701  -50.4160  -51.4788 H         1 UNK         0.0798 
    115 H115       29.8297  -51.6907  -51.2243 H         1 UNK         0.0798 
    116 H116       29.2192  -51.3837  -52.8446 H         1 UNK         0.0798 
    117 H117       32.0689  -50.1995  -53.7357 H         1 UNK         0.3079 
    118 H118       34.2987  -52.7663  -52.4431 H         1 UNK         0.0794 
    119 H119       34.1735  -53.1308  -54.8998 H         1 UNK         0.0786 
    120 H120       32.7483  -52.1034  -55.0061 H         1 UNK         0.0786 
    121 H121       32.6828  -53.6047  -54.1023 H         1 UNK         0.0786 
    122 H122       34.4178  -50.3651  -54.1751 H         1 UNK         0.3032 
    123 H123       36.5623  -48.6301  -52.0421 H         1 UNK         0.1094 
    124 H124       37.6473  -50.1395  -54.4862 H         1 UNK         0.0794 
    125 H125       38.3363  -48.6717  -53.7896 H         1 UNK         0.0794 
    126 H126       38.3459  -50.1685  -52.8734 H         1 UNK         0.0794 
    127 H127       35.9574  -48.3843  -54.8589 H         1 UNK         0.3016 
@<TRIPOS>BOND
     1    1    2 1    
     2    1   67 1    
     3    1   68 1    
     4    1   69 1    
     5    2    3 2    
     6    2    4 am   BACKBONE|DICT|INTERRES
     7    4    5 1    
     8    4   70 1    
     9    5    6 1    
    10    5   65 1    
    11    5   71 1    
    12    6    7 1    
    13    6   72 1    
    14    6   73 1    
    15    7    8 1    
    16    8    9 1    
    17    8   74 1    
    18    8   75 1    
    19    9   10 ar   
    20    9   14 ar   
    21   10   11 ar   
    22   10   76 1    
    23   11   12 ar   
    24   11   48 1    
    25   12   13 ar   
    26   12   77 1    
    27   13   14 ar   
    28   13   15 1    
    29   14   78 1    
    30   15   16 1    
    31   15   79 1    
    32   15   80 1    
    33   16   17 1    
    34   17   18 1    
    35   17   81 1    
    36   17   82 1    
    37   18   19 1    
    38   18   22 1    
    39   18   83 1    
    40   19   20 am   BACKBONE|DICT|INTERRES
    41   19   21 2    
    42   20   84 1    
    43   20   85 1    
    44   22   23 am   BACKBONE|DICT|INTERRES
    45   22   86 1    
    46   23   24 2    
    47   23   25 1    
    48   25   26 1    
    49   25   27 1    
    50   25   87 1    
    51   26   88 1    
    52   26   89 1    
    53   26   90 1    
    54   27   28 am   BACKBONE|DICT|INTERRES
    55   27   91 1    
    56   28   29 2    
    57   28   30 1    
    58   30   31 1    
    59   30   32 1    
    60   30   92 1    
    61   31   93 1    
    62   31   94 1    
    63   31   95 1    
    64   32   33 am   BACKBONE|DICT|INTERRES
    65   32   96 1    
    66   33   34 2    
    67   33   35 1    
    68   35   36 1    
    69   35   37 1    
    70   35   97 1    
    71   36   98 1    
    72   36   99 1    
    73   36  100 1    
    74   37   38 am   BACKBONE|DICT|INTERRES
    75   37  101 1    
    76   38   39 2    
    77   38   40 1    
    78   40   41 1    
    79   40   42 1    
    80   40  102 1    
    81   41  103 1    
    82   41  104 1    
    83   41  105 1    
    84   42   43 am   BACKBONE|DICT|INTERRES
    85   42  106 1    
    86   43   44 2    
    87   43   45 1    
    88   45   46 1    
    89   45   49 1    
    90   45  107 1    
    91   46   47 1    
    92   46  108 1    
    93   46  109 1    
    94   47   48 1    
    95   48  110 1    
    96   48  111 1    
    97   49   50 am   BACKBONE|DICT|INTERRES
    98   49  112 1    
    99   50   51 2    
   100   50   52 1    
   101   52   53 1    
   102   52   54 1    
   103   52  113 1    
   104   53  114 1    
   105   53  115 1    
   106   53  116 1    
   107   54   55 am   BACKBONE|DICT|INTERRES
   108   54  117 1    
   109   55   56 2    
   110   55   57 1    
   111   57   58 1    
   112   57   59 1    
   113   57  118 1    
   114   58  119 1    
   115   58  120 1    
   116   58  121 1    
   117   59   60 am   BACKBONE|DICT|INTERRES
   118   59  122 1    
   119   60   61 2    
   120   60   62 1    
   121   62   63 1    
   122   62   64 1    
   123   62  123 1    
   124   63  124 1    
   125   63  125 1    
   126   63  126 1    
   127   64   65 am   BACKBONE|DICT|INTERRES
   128   64  127 1    
   129   65   66 2    
@<TRIPOS>SUBSTRUCTURE
     1 UNK         1 GROUP             0       ****    0 ROOT    
