@<TRIPOS>MOLECULE
3R134
127   129    1
SMALL
USER_CHARGES


@<TRIPOS>ATOM
      1 CA         35.3990  -48.4711  -54.8162 C.3       0 UNK        -0.1968 
      2 C          35.1204  -47.1531  -54.1081 C.2       0 UNK         0.4852 
      3 O          36.0311  -46.5890  -53.5011 O.2       0 UNK        -0.5359 
      4 N          33.8696  -46.6752  -54.1806 N.am      1 UNK        -0.4300 
      5 CA         33.3315  -45.5034  -53.4775 C.3       1 UNK         0.0863 
      6 C6         34.1226  -44.1935  -53.7598 C.3       11 UNK        -0.0953 
      7 S7         33.1888  -42.6658  -53.3964 S.3       11 UNK        -0.2369 
      8 C8         33.0259  -41.8791  -55.0286 C.3       11 UNK         0.0226 
      9 C9         31.6919  -42.2068  -55.6803 C.ar      11 UNK        -0.0699 
     10 C10        31.6105  -43.1504  -56.7087 C.ar      11 UNK        -0.0804 
     11 C11        30.3857  -43.4112  -57.3329 C.ar      11 UNK        -0.0871 
     12 C12        29.2402  -42.7247  -56.9183 C.ar      11 UNK        -0.1008 
     13 C13        29.3090  -41.7856  -55.8853 C.ar      11 UNK        -0.0735 
     14 C14        30.5384  -41.5303  -55.2719 C.ar      11 UNK        -0.0945 
     15 C15        28.0596  -41.0363  -55.4415 C.3       11 UNK         0.0169 
     16 S16        26.8235  -42.1348  -54.6773 S.3       11 UNK        -0.2669 
     17 C17        27.7437  -42.8070  -53.2479 C.3       11 UNK        -0.0850 
     18 CA         28.3097  -44.2297  -53.5128 C.3       10 UNK         0.0855 
     19 C          29.1520  -44.7293  -52.3071 C.2       10 UNK         0.5543 
     20 N          30.2824  -44.0884  -52.0483 N.am      10 UNK        -0.7343 
     21 O          28.7862  -45.6506  -51.5805 O.2       10 UNK        -0.5027 
     22 N          27.2429  -45.1486  -53.9352 N.am      10 UNK        -0.4495 
     23 C          27.4242  -46.3204  -54.5508 C.2       10 UNK         0.4903 
     24 O          28.5237  -46.8357  -54.7528 O.2       10 UNK        -0.4860 
     25 CA         26.1459  -46.9958  -55.0688 C.3       9 UNK         0.0227 
     26 CB         25.4880  -46.1555  -56.1825 C.3       9 UNK        -0.1964 
     27 N          26.4552  -48.3229  -55.5916 N.am      9 UNK        -0.4231 
     28 C          25.6097  -49.3560  -55.6640 C.2       9 UNK         0.5014 
     29 O          24.4338  -49.3018  -55.2966 O.2       9 UNK        -0.5270 
     30 CA         26.1597  -50.6533  -56.2948 C.3       8 UNK         0.0284 
     31 CB         25.2092  -51.8513  -56.1098 C.3       8 UNK        -0.1977 
     32 N          26.4354  -50.4820  -57.7259 N.am      8 UNK        -0.4342 
     33 C          27.5004  -49.8420  -58.2205 C.2       8 UNK         0.5039 
     34 O          28.3871  -49.3648  -57.5080 O.2       8 UNK        -0.5547 
     35 CA         27.5904  -49.6875  -59.7457 C.3       7 UNK         0.0281 
     36 CB         26.4727  -48.7761  -60.2832 C.3       7 UNK        -0.1963 
     37 N          28.8832  -49.0829  -60.0482 N.am      7 UNK        -0.4444 
     38 C          29.7250  -49.4197  -61.0308 C.2       7 UNK         0.5104 
     39 O          29.4565  -50.2321  -61.9163 O.2       7 UNK        -0.5100 
     40 CA         31.1100  -48.7364  -61.0202 C.3       6 UNK         0.0396 
     41 CB         31.1645  -47.6202  -62.0755 C.3       6 UNK        -0.1801 
     42 N          31.4528  -48.1708  -59.7097 N.am      6 UNK        -0.4747 
     43 C          31.7974  -48.8884  -58.6319 C.2       6 UNK         0.5012 
     44 O          32.0394  -50.0962  -58.6756 O.2       6 UNK        -0.5003 
     45 CA         31.8279  -48.1668  -57.2696 C.3       5 UNK         0.0782 
     46 C46        31.6069  -46.6254  -57.2958 C.3       11 UNK        -0.0868 
     47 S47        29.9459  -46.0910  -57.8531 S.3       11 UNK        -0.2515 
     48 C48        30.2941  -44.4168  -58.4701 C.3       11 UNK         0.0199 
     49 N          30.8661  -48.8532  -56.4171 N.am      5 UNK        -0.4607 
     50 C          30.9514  -49.0393  -55.1029 C.2       4 UNK         0.5031 
     51 O          31.8689  -48.6112  -54.3950 O.2       4 UNK        -0.5119 
     52 CA         29.8213  -49.8661  -54.4826 C.3       4 UNK         0.0263 
     53 CB         30.0606  -51.3747  -54.6604 C.3       4 UNK        -0.1967 
     54 N          29.7347  -49.5323  -53.0724 N.am      4 UNK        -0.4237 
     55 C          28.6338  -49.5467  -52.3177 C.2       3 UNK         0.4908 
     56 O          27.5504  -49.9883  -52.7032 O.2       3 UNK        -0.5102 
     57 CA         28.7323  -48.9327  -50.9071 C.3       3 UNK         0.0241 
     58 CB         28.4829  -49.9840  -49.8056 C.3       3 UNK        -0.1971 
     59 N          29.9602  -48.1547  -50.6632 N.am      3 UNK        -0.4139 
     60 C          31.2119  -48.6059  -50.4911 C.2       2 UNK         0.5016 
     61 O          31.5259  -49.7962  -50.5168 O.2       2 UNK        -0.5319 
     62 CA         32.3061  -47.5404  -50.3694 C.3       2 UNK         0.0286 
     63 CB         33.5922  -48.0778  -49.7081 C.3       2 UNK        -0.1963 
     64 N          32.6060  -47.0382  -51.7086 N.am      2 UNK        -0.4790 
     65 C          33.1239  -45.8327  -51.9798 C.2       1 UNK         0.5024 
     66 O          33.4187  -45.0172  -51.1045 O.2       1 UNK        -0.4888 
     67 H67        34.4825  -48.9741  -55.1225 H         1 UNK         0.0892 
     68 H68        36.0092  -48.2996  -55.7025 H         1 UNK         0.0892 
     69 H69        35.9420  -49.1448  -54.1538 H         1 UNK         0.0892 
     70 H70        33.1588  -47.2772  -54.5896 H         1 UNK         0.3107 
     71 H71        32.3291  -45.3666  -53.8874 H         1 UNK         0.0773 
     72 H72        34.4293  -44.1759  -54.8059 H         1 UNK         0.0680 
     73 H73        35.0478  -44.1671  -53.1822 H         1 UNK         0.0680 
     74 H74        33.0993  -40.7987  -54.8960 H         1 UNK         0.0650 
     75 H75        33.8592  -42.1541  -55.6764 H         1 UNK         0.0650 
     76 H76        32.5010  -43.6723  -57.0304 H         1 UNK         0.1397 
     77 H77        28.2898  -42.9252  -57.3940 H         1 UNK         0.1363 
     78 H78        30.6034  -40.7979  -54.4787 H         1 UNK         0.1355 
     79 H79        28.3099  -40.2389  -54.7399 H         1 UNK         0.0707 
     80 H80        27.6099  -40.5500  -56.3082 H         1 UNK         0.0707 
     81 H81        28.5418  -42.1111  -52.9836 H         1 UNK         0.1034 
     82 H82        27.0701  -42.8238  -52.3891 H         1 UNK         0.1034 
     83 H83        29.0047  -44.1647  -54.3521 H         1 UNK         0.0482 
     84 H84        30.8328  -44.3588  -51.2493 H         1 UNK         0.3460 
     85 H85        30.6026  -43.3349  -52.6365 H         1 UNK         0.3460 
     86 H86        26.3026  -44.8069  -53.8067 H         1 UNK         0.2989 
     87 H87        25.4579  -47.0936  -54.2266 H         1 UNK         0.0559 
     88 H88        25.2135  -45.1617  -55.8272 H         1 UNK         0.0848 
     89 H89        24.5759  -46.6255  -56.5505 H         1 UNK         0.0848 
     90 H90        26.1612  -46.0235  -57.0309 H         1 UNK         0.0848 
     91 H91        27.4045  -48.4386  -55.9369 H         1 UNK         0.3144 
     92 H92        27.0909  -50.8980  -55.7800 H         1 UNK         0.0727 
     93 H93        25.6491  -52.7700  -56.4981 H         1 UNK         0.0790 
     94 H94        24.2551  -51.6954  -56.6147 H         1 UNK         0.0790 
     95 H95        24.9962  -52.0180  -55.0529 H         1 UNK         0.0790 
     96 H96        25.7297  -50.8213  -58.3639 H         1 UNK         0.3215 
     97 H97        27.5200  -50.6788  -60.1985 H         1 UNK         0.0863 
     98 H98        26.5725  -48.6222  -61.3578 H         1 UNK         0.0808 
     99 H99        26.4877  -47.7962  -59.8035 H         1 UNK         0.0808 
    100 H100       25.4873  -49.2101  -60.1114 H         1 UNK         0.0808 
    101 H101       29.2214  -48.4699  -59.3168 H         1 UNK         0.3118 
    102 H102       31.8548  -49.4914  -61.2805 H         1 UNK         0.0546 
    103 H103       30.9428  -48.0121  -63.0692 H         1 UNK         0.0828 
    104 H104       32.1541  -47.1655  -62.1221 H         1 UNK         0.0828 
    105 H105       30.4404  -46.8313  -61.8678 H         1 UNK         0.0828 
    106 H106       31.2405  -47.1915  -59.5704 H         1 UNK         0.3005 
    107 H107       32.8281  -48.3525  -56.8740 H         1 UNK         0.1257 
    108 H108       32.3738  -46.1518  -57.9109 H         1 UNK         0.0775 
    109 H109       31.7507  -46.2237  -56.2920 H         1 UNK         0.0775 
    110 H110       31.2099  -44.4122  -59.0630 H         1 UNK         0.0840 
    111 H111       29.4949  -44.1268  -59.1540 H         1 UNK         0.0840 
    112 H112       30.0309  -49.1916  -56.8966 H         1 UNK         0.2987 
    113 H113       28.8873  -49.5827  -54.9651 H         1 UNK         0.0785 
    114 H114       29.2485  -51.9584  -54.2266 H         1 UNK         0.0798 
    115 H115       30.9917  -51.6915  -54.1888 H         1 UNK         0.0798 
    116 H116       30.1197  -51.6378  -55.7174 H         1 UNK         0.0798 
    117 H117       30.5870  -49.1530  -52.6846 H         1 UNK         0.3079 
    118 H118       27.9197  -48.2067  -50.8486 H         1 UNK         0.0794 
    119 H119       27.4960  -50.4346  -49.9177 H         1 UNK         0.0786 
    120 H120       28.5236  -49.5369  -48.8124 H         1 UNK         0.0786 
    121 H121       29.2101  -50.7954  -49.8411 H         1 UNK         0.0786 
    122 H122       29.8145  -47.1508  -50.7333 H         1 UNK         0.3032 
    123 H123       31.9124  -46.7304  -49.7504 H         1 UNK         0.1094 
    124 H124       34.3224  -47.2831  -49.5545 H         1 UNK         0.0794 
    125 H125       33.3764  -48.5119  -48.7311 H         1 UNK         0.0794 
    126 H126       34.0649  -48.8517  -50.3141 H         1 UNK         0.0794 
    127 H127       32.3939  -47.6600  -52.4811 H         1 UNK         0.3016 
@<TRIPOS>BOND
     1    1    2 1    
     2    1   67 1    
     3    1   68 1    
     4    1   69 1    
     5    2    3 2    
     6    2    4 am   BACKBONE|DICT|INTERRES
     7    4    5 1    
     8    4   70 1    
     9    5    6 1    
    10    5   65 1    
    11    5   71 1    
    12    6    7 1    
    13    6   72 1    
    14    6   73 1    
    15    7    8 1    
    16    8    9 1    
    17    8   74 1    
    18    8   75 1    
    19    9   10 ar   
    20    9   14 ar   
    21   10   11 ar   
    22   10   76 1    
    23   11   12 ar   
    24   11   48 1    
    25   12   13 ar   
    26   12   77 1    
    27   13   14 ar   
    28   13   15 1    
    29   14   78 1    
    30   15   16 1    
    31   15   79 1    
    32   15   80 1    
    33   16   17 1    
    34   17   18 1    
    35   17   81 1    
    36   17   82 1    
    37   18   19 1    
    38   18   22 1    
    39   18   83 1    
    40   19   20 am   BACKBONE|DICT|INTERRES
    41   19   21 2    
    42   20   84 1    
    43   20   85 1    
    44   22   23 am   BACKBONE|DICT|INTERRES
    45   22   86 1    
    46   23   24 2    
    47   23   25 1    
    48   25   26 1    
    49   25   27 1    
    50   25   87 1    
    51   26   88 1    
    52   26   89 1    
    53   26   90 1    
    54   27   28 am   BACKBONE|DICT|INTERRES
    55   27   91 1    
    56   28   29 2    
    57   28   30 1    
    58   30   31 1    
    59   30   32 1    
    60   30   92 1    
    61   31   93 1    
    62   31   94 1    
    63   31   95 1    
    64   32   33 am   BACKBONE|DICT|INTERRES
    65   32   96 1    
    66   33   34 2    
    67   33   35 1    
    68   35   36 1    
    69   35   37 1    
    70   35   97 1    
    71   36   98 1    
    72   36   99 1    
    73   36  100 1    
    74   37   38 am   BACKBONE|DICT|INTERRES
    75   37  101 1    
    76   38   39 2    
    77   38   40 1    
    78   40   41 1    
    79   40   42 1    
    80   40  102 1    
    81   41  103 1    
    82   41  104 1    
    83   41  105 1    
    84   42   43 am   BACKBONE|DICT|INTERRES
    85   42  106 1    
    86   43   44 2    
    87   43   45 1    
    88   45   46 1    
    89   45   49 1    
    90   45  107 1    
    91   46   47 1    
    92   46  108 1    
    93   46  109 1    
    94   47   48 1    
    95   48  110 1    
    96   48  111 1    
    97   49   50 am   BACKBONE|DICT|INTERRES
    98   49  112 1    
    99   50   51 2    
   100   50   52 1    
   101   52   53 1    
   102   52   54 1    
   103   52  113 1    
   104   53  114 1    
   105   53  115 1    
   106   53  116 1    
   107   54   55 am   BACKBONE|DICT|INTERRES
   108   54  117 1    
   109   55   56 2    
   110   55   57 1    
   111   57   58 1    
   112   57   59 1    
   113   57  118 1    
   114   58  119 1    
   115   58  120 1    
   116   58  121 1    
   117   59   60 am   BACKBONE|DICT|INTERRES
   118   59  122 1    
   119   60   61 2    
   120   60   62 1    
   121   62   63 1    
   122   62   64 1    
   123   62  123 1    
   124   63  124 1    
   125   63  125 1    
   126   63  126 1    
   127   64   65 am   BACKBONE|DICT|INTERRES
   128   64  127 1    
   129   65   66 2    
@<TRIPOS>SUBSTRUCTURE
     1 UNK         1 GROUP             0       ****    0 ROOT    
