@<TRIPOS>MOLECULE
3R134
127   129    1
SMALL
USER_CHARGES


@<TRIPOS>ATOM
      1 CA         29.4209  -43.6806  -51.1062 C.3       0 UNK        -0.1968 
      2 C          30.4190  -44.5205  -50.3210 C.2       0 UNK         0.4852 
      3 O          30.1827  -44.8168  -49.1486 O.2       0 UNK        -0.5359 
      4 N          31.5330  -44.8944  -50.9608 N.am      1 UNK        -0.4300 
      5 CA         32.5784  -45.7677  -50.4207 C.3       1 UNK         0.0863 
      6 C6         33.9721  -45.3701  -50.9802 C.3       11 UNK        -0.0953 
      7 S7         34.0915  -45.5287  -52.7954 S.3       11 UNK        -0.2369 
      8 C8         34.1163  -43.7938  -53.3443 C.3       11 UNK         0.0226 
      9 C9         33.2805  -43.6017  -54.6009 C.ar      11 UNK        -0.0699 
     10 C10        33.6716  -44.1904  -55.8067 C.ar      11 UNK        -0.0804 
     11 C11        32.9108  -44.0138  -56.9670 C.ar      11 UNK        -0.0871 
     12 C12        31.7489  -43.2358  -56.9168 C.ar      11 UNK        -0.1008 
     13 C13        31.3614  -42.6225  -55.7201 C.ar      11 UNK        -0.0735 
     14 C14        32.1258  -42.8157  -54.5658 C.ar      11 UNK        -0.0945 
     15 C15        30.1482  -41.7068  -55.6695 C.3       11 UNK         0.0169 
     16 S16        28.6947  -42.5498  -54.9795 S.3       11 UNK        -0.2669 
     17 C17        27.9778  -43.2899  -56.4827 C.3       11 UNK        -0.0850 
     18 CA         26.6055  -43.9547  -56.1913 C.3       10 UNK         0.0855 
     19 C          25.4679  -42.8925  -56.1679 C.2       10 UNK         0.5543 
     20 N          25.0733  -42.4243  -54.9919 N.am      10 UNK        -0.7343 
     21 O          24.9725  -42.4662  -57.2097 O.2       10 UNK        -0.5027 
     22 N          26.3492  -45.0588  -57.1281 N.am      10 UNK        -0.4495 
     23 C          25.2635  -45.8430  -57.1256 C.2       10 UNK         0.4903 
     24 O          24.3767  -45.7990  -56.2722 O.2       10 UNK        -0.4860 
     25 CA         25.1346  -46.8525  -58.2704 C.3       9 UNK         0.0227 
     26 CB         25.7234  -46.3640  -59.6107 C.3       9 UNK        -0.1964 
     27 N          25.7502  -48.1154  -57.8749 N.am      9 UNK        -0.4231 
     28 C          25.2813  -49.3246  -58.2063 C.2       9 UNK         0.5014 
     29 O          24.2622  -49.5012  -58.8766 O.2       9 UNK        -0.5270 
     30 CA         26.0786  -50.5559  -57.7455 C.3       8 UNK         0.0284 
     31 CB         26.8353  -51.1702  -58.9353 C.3       8 UNK        -0.1977 
     32 N          27.0260  -50.2742  -56.6626 N.am      8 UNK        -0.4342 
     33 C          26.6937  -50.2364  -55.3649 C.2       8 UNK         0.5039 
     34 O          25.5436  -50.3861  -54.9500 O.2       8 UNK        -0.5547 
     35 CA         27.8317  -50.0093  -54.3555 C.3       7 UNK         0.0281 
     36 CB         28.6498  -51.2955  -54.1573 C.3       7 UNK        -0.1963 
     37 N          28.7279  -48.9139  -54.7258 N.am      7 UNK        -0.4444 
     38 C          28.3849  -47.6192  -54.7390 C.2       7 UNK         0.5104 
     39 O          27.2606  -47.2034  -54.4631 O.2       7 UNK        -0.5100 
     40 CA         29.4784  -46.6205  -55.1427 C.3       6 UNK         0.0396 
     41 CB         30.4042  -46.2973  -53.9645 C.3       6 UNK        -0.1801 
     42 N          30.2687  -47.1117  -56.2688 N.am      6 UNK        -0.4747 
     43 C          29.8774  -47.0427  -57.5477 C.2       6 UNK         0.5012 
     44 O          28.8415  -46.4876  -57.9152 O.2       6 UNK        -0.5003 
     45 CA         30.7679  -47.7353  -58.5985 C.3       5 UNK         0.0782 
     46 C46        31.7566  -46.7419  -59.2613 C.3       11 UNK        -0.0868 
     47 S47        33.2751  -46.4323  -58.2881 S.3       11 UNK        -0.2515 
     48 C48        33.3917  -44.6152  -58.2796 C.3       11 UNK         0.0199 
     49 N          31.4452  -48.9327  -58.0879 N.am      5 UNK        -0.4607 
     50 C          30.8345  -50.0511  -57.6797 C.2       4 UNK         0.5031 
     51 O          29.6175  -50.2163  -57.7138 O.2       4 UNK        -0.5119 
     52 CA         31.7268  -51.1501  -57.0794 C.3       4 UNK         0.0263 
     53 CB         32.3140  -52.0332  -58.1914 C.3       4 UNK        -0.1967 
     54 N          32.8087  -50.6356  -56.2316 N.am      4 UNK        -0.4237 
     55 C          32.6321  -49.8686  -55.1466 C.2       3 UNK         0.4908 
     56 O          31.5315  -49.4657  -54.7647 O.2       3 UNK        -0.5102 
     57 CA         33.9069  -49.4280  -54.4101 C.3       3 UNK         0.0241 
     58 CB         34.4931  -48.1798  -55.0898 C.3       3 UNK        -0.1971 
     59 N          33.6659  -49.1423  -52.9912 N.am      3 UNK        -0.4139 
     60 C          33.3221  -50.0602  -52.0740 C.2       2 UNK         0.5016 
     61 O          33.2060  -51.2604  -52.3292 O.2       2 UNK        -0.5319 
     62 CA         33.1067  -49.5923  -50.6190 C.3       2 UNK         0.0286 
     63 CB         34.1073  -50.2821  -49.6746 C.3       2 UNK        -0.1963 
     64 N          33.2204  -48.1416  -50.4345 N.am      2 UNK        -0.4790 
     65 C          32.2294  -47.2626  -50.6361 C.2       1 UNK         0.5024 
     66 O          31.0958  -47.6011  -50.9824 O.2       1 UNK        -0.4888 
     67 H67        29.7842  -43.4410  -52.1057 H         1 UNK         0.0892 
     68 H68        28.4784  -44.2177  -51.2096 H         1 UNK         0.0892 
     69 H69        29.2248  -42.7439  -50.5853 H         1 UNK         0.0892 
     70 H70        31.6556  -44.6469  -51.9313 H         1 UNK         0.3107 
     71 H71        32.6179  -45.6258  -49.3386 H         1 UNK         0.0773 
     72 H72        34.2031  -44.3458  -50.6849 H         1 UNK         0.0680 
     73 H73        34.7649  -45.9691  -50.5301 H         1 UNK         0.0680 
     74 H74        35.1472  -43.4965  -53.5405 H         1 UNK         0.0650 
     75 H75        33.7532  -43.1398  -52.5506 H         1 UNK         0.0650 
     76 H76        34.5723  -44.7883  -55.8418 H         1 UNK         0.1397 
     77 H77        31.1634  -43.0821  -57.8129 H         1 UNK         0.1363 
     78 H78        31.8242  -42.3389  -53.6432 H         1 UNK         0.1355 
     79 H79        29.9198  -41.3074  -56.6588 H         1 UNK         0.0707 
     80 H80        30.3763  -40.8424  -55.0439 H         1 UNK         0.0707 
     81 H81        27.8919  -42.5335  -57.2657 H         1 UNK         0.1034 
     82 H82        28.6963  -44.0160  -56.8627 H         1 UNK         0.1034 
     83 H83        26.6513  -44.4253  -55.2068 H         1 UNK         0.0482 
     84 H84        24.3477  -41.7257  -54.9579 H         1 UNK         0.3460 
     85 H85        25.4976  -42.7505  -54.1376 H         1 UNK         0.3460 
     86 H86        27.0641  -45.2321  -57.8231 H         1 UNK         0.2989 
     87 H87        24.0622  -46.9990  -58.4176 H         1 UNK         0.0559 
     88 H88        26.8118  -46.3141  -59.5941 H         1 UNK         0.0848 
     89 H89        25.3486  -45.3719  -59.8662 H         1 UNK         0.0848 
     90 H90        25.4412  -47.0320  -60.4246 H         1 UNK         0.0848 
     91 H91        26.5714  -48.0527  -57.2882 H         1 UNK         0.3144 
     92 H92        25.3573  -51.2967  -57.3933 H         1 UNK         0.0727 
     93 H93        27.5324  -50.4591  -59.3805 H         1 UNK         0.0790 
     94 H94        26.1436  -51.4802  -59.7197 H         1 UNK         0.0790 
     95 H95        27.4015  -52.0522  -58.6352 H         1 UNK         0.0790 
     96 H96        28.0051  -50.1729  -56.9338 H         1 UNK         0.3215 
     97 H97        27.3755  -49.7507  -53.3974 H         1 UNK         0.0863 
     98 H98        29.4251  -51.1607  -53.4024 H         1 UNK         0.0808 
     99 H99        29.1352  -51.6111  -55.0807 H         1 UNK         0.0808 
    100 H100       28.0122  -52.1163  -53.8265 H         1 UNK         0.0808 
    101 H101       29.7012  -49.1538  -54.9048 H         1 UNK         0.3118 
    102 H102       28.9844  -45.6940  -55.4279 H         1 UNK         0.0546 
    103 H103       29.8279  -45.9494  -53.1075 H         1 UNK         0.0828 
    104 H104       31.1118  -45.5126  -54.2278 H         1 UNK         0.0828 
    105 H105       30.9752  -47.1674  -53.6420 H         1 UNK         0.0828 
    106 H106       31.1067  -47.6310  -56.0444 H         1 UNK         0.3005 
    107 H107       30.0812  -48.0750  -59.3777 H         1 UNK         0.1257 
    108 H108       31.2566  -45.8013  -59.5006 H         1 UNK         0.0775 
    109 H109       32.0752  -47.1487  -60.2222 H         1 UNK         0.0775 
    110 H110       34.4374  -44.3398  -58.4247 H         1 UNK         0.0840 
    111 H111       32.8559  -44.1906  -59.1296 H         1 UNK         0.0840 
    112 H112       32.4495  -48.8658  -58.0079 H         1 UNK         0.2987 
    113 H113       31.0927  -51.7771  -56.4501 H         1 UNK         0.0785 
    114 H114       31.5235  -52.4404  -58.8237 H         1 UNK         0.0798 
    115 H115       32.8628  -52.8798  -57.7785 H         1 UNK         0.0798 
    116 H116       32.9926  -51.4747  -58.8375 H         1 UNK         0.0798 
    117 H117       33.7479  -50.9064  -56.4863 H         1 UNK         0.3079 
    118 H118       34.6394  -50.2361  -54.4657 H         1 UNK         0.0794 
    119 H119       33.7722  -47.3613  -55.1190 H         1 UNK         0.0786 
    120 H120       34.7803  -48.3908  -56.1205 H         1 UNK         0.0786 
    121 H121       35.3860  -47.8251  -54.5747 H         1 UNK         0.0786 
    122 H122       33.7144  -48.1749  -52.7065 H         1 UNK         0.3032 
    123 H123       32.1004  -49.9089  -50.3341 H         1 UNK         0.1094 
    124 H124       35.1382  -50.0232  -49.9191 H         1 UNK         0.0794 
    125 H125       33.9278  -50.0057  -48.6353 H         1 UNK         0.0794 
    126 H126       34.0214  -51.3680  -49.7357 H         1 UNK         0.0794 
    127 H127       34.1280  -47.7953  -50.1565 H         1 UNK         0.3016 
@<TRIPOS>BOND
     1    1    2 1    
     2    1   67 1    
     3    1   68 1    
     4    1   69 1    
     5    2    3 2    
     6    2    4 am   BACKBONE|DICT|INTERRES
     7    4    5 1    
     8    4   70 1    
     9    5    6 1    
    10    5   65 1    
    11    5   71 1    
    12    6    7 1    
    13    6   72 1    
    14    6   73 1    
    15    7    8 1    
    16    8    9 1    
    17    8   74 1    
    18    8   75 1    
    19    9   10 ar   
    20    9   14 ar   
    21   10   11 ar   
    22   10   76 1    
    23   11   12 ar   
    24   11   48 1    
    25   12   13 ar   
    26   12   77 1    
    27   13   14 ar   
    28   13   15 1    
    29   14   78 1    
    30   15   16 1    
    31   15   79 1    
    32   15   80 1    
    33   16   17 1    
    34   17   18 1    
    35   17   81 1    
    36   17   82 1    
    37   18   19 1    
    38   18   22 1    
    39   18   83 1    
    40   19   20 am   BACKBONE|DICT|INTERRES
    41   19   21 2    
    42   20   84 1    
    43   20   85 1    
    44   22   23 am   BACKBONE|DICT|INTERRES
    45   22   86 1    
    46   23   24 2    
    47   23   25 1    
    48   25   26 1    
    49   25   27 1    
    50   25   87 1    
    51   26   88 1    
    52   26   89 1    
    53   26   90 1    
    54   27   28 am   BACKBONE|DICT|INTERRES
    55   27   91 1    
    56   28   29 2    
    57   28   30 1    
    58   30   31 1    
    59   30   32 1    
    60   30   92 1    
    61   31   93 1    
    62   31   94 1    
    63   31   95 1    
    64   32   33 am   BACKBONE|DICT|INTERRES
    65   32   96 1    
    66   33   34 2    
    67   33   35 1    
    68   35   36 1    
    69   35   37 1    
    70   35   97 1    
    71   36   98 1    
    72   36   99 1    
    73   36  100 1    
    74   37   38 am   BACKBONE|DICT|INTERRES
    75   37  101 1    
    76   38   39 2    
    77   38   40 1    
    78   40   41 1    
    79   40   42 1    
    80   40  102 1    
    81   41  103 1    
    82   41  104 1    
    83   41  105 1    
    84   42   43 am   BACKBONE|DICT|INTERRES
    85   42  106 1    
    86   43   44 2    
    87   43   45 1    
    88   45   46 1    
    89   45   49 1    
    90   45  107 1    
    91   46   47 1    
    92   46  108 1    
    93   46  109 1    
    94   47   48 1    
    95   48  110 1    
    96   48  111 1    
    97   49   50 am   BACKBONE|DICT|INTERRES
    98   49  112 1    
    99   50   51 2    
   100   50   52 1    
   101   52   53 1    
   102   52   54 1    
   103   52  113 1    
   104   53  114 1    
   105   53  115 1    
   106   53  116 1    
   107   54   55 am   BACKBONE|DICT|INTERRES
   108   54  117 1    
   109   55   56 2    
   110   55   57 1    
   111   57   58 1    
   112   57   59 1    
   113   57  118 1    
   114   58  119 1    
   115   58  120 1    
   116   58  121 1    
   117   59   60 am   BACKBONE|DICT|INTERRES
   118   59  122 1    
   119   60   61 2    
   120   60   62 1    
   121   62   63 1    
   122   62   64 1    
   123   62  123 1    
   124   63  124 1    
   125   63  125 1    
   126   63  126 1    
   127   64   65 am   BACKBONE|DICT|INTERRES
   128   64  127 1    
   129   65   66 2    
@<TRIPOS>SUBSTRUCTURE
     1 UNK         1 GROUP             0       ****    0 ROOT    
