@<TRIPOS>MOLECULE
3R134
127   129    1
SMALL
USER_CHARGES


@<TRIPOS>ATOM
      1 CA         29.7963  -45.2757  -52.4598 C.3       0 UNK        -0.1968 
      2 C          31.0809  -45.4267  -51.6593 C.2       0 UNK         0.4852 
      3 O          31.0550  -45.9750  -50.5576 O.2       0 UNK        -0.5359 
      4 N          32.2028  -44.9384  -52.2021 N.am      1 UNK        -0.4300 
      5 CA         33.5071  -44.8665  -51.5278 C.3       1 UNK         0.0863 
      6 C6         34.3319  -43.6506  -52.0274 C.3       11 UNK        -0.0953 
      7 S7         33.4296  -42.0708  -51.8298 S.3       11 UNK        -0.2369 
      8 C8         33.4455  -41.3689  -53.5121 C.3       11 UNK         0.0226 
      9 C9         32.5663  -42.1436  -54.4853 C.ar      11 UNK        -0.0699 
     10 C10        33.1439  -43.0663  -55.3626 C.ar      11 UNK        -0.0804 
     11 C11        32.3503  -43.7817  -56.2614 C.ar      11 UNK        -0.0871 
     12 C12        30.9736  -43.5498  -56.3011 C.ar      11 UNK        -0.1008 
     13 C13        30.3825  -42.6245  -55.4382 C.ar      11 UNK        -0.0735 
     14 C14        31.1833  -41.9239  -54.5282 C.ar      11 UNK        -0.0945 
     15 C15        28.8781  -42.4036  -55.5047 C.3       11 UNK         0.0169 
     16 S16        28.4295  -41.5566  -57.0499 S.3       11 UNK        -0.2669 
     17 C17        26.6200  -41.8094  -57.1250 C.3       11 UNK        -0.0850 
     18 CA         26.1352  -43.0067  -58.0001 C.3       10 UNK         0.0855 
     19 C          26.7955  -43.1105  -59.4022 C.2       10 UNK         0.5543 
     20 N          26.6038  -42.1115  -60.2528 N.am      10 UNK        -0.7343 
     21 O          27.4760  -44.0830  -59.7267 O.2       10 UNK        -0.5027 
     22 N          26.2004  -44.2885  -57.2890 N.am      10 UNK        -0.4495 
     23 C          25.2688  -44.7449  -56.4448 C.2       10 UNK         0.4903 
     24 O          24.2951  -44.0783  -56.0893 O.2       10 UNK        -0.4860 
     25 CA         25.4513  -46.1732  -55.8928 C.3       9 UNK         0.0227 
     26 CB         24.1149  -46.8272  -55.4821 C.3       9 UNK        -0.1964 
     27 N          26.2193  -47.0670  -56.7679 N.am      9 UNK        -0.4231 
     28 C          25.9068  -47.5036  -57.9973 C.2       9 UNK         0.5014 
     29 O          24.9008  -47.1632  -58.6209 O.2       9 UNK        -0.5270 
     30 CA         26.8862  -48.5097  -58.6322 C.3       8 UNK         0.0284 
     31 CB         28.1138  -47.7887  -59.2138 C.3       8 UNK        -0.1977 
     32 N          27.3200  -49.5470  -57.6890 N.am      8 UNK        -0.4342 
     33 C          26.5244  -50.5143  -57.2068 C.2       8 UNK         0.5039 
     34 O          25.3648  -50.6968  -57.5799 O.2       8 UNK        -0.5547 
     35 CA         27.1073  -51.4210  -56.1067 C.3       7 UNK         0.0281 
     36 CB         27.9398  -52.5641  -56.7092 C.3       7 UNK        -0.1963 
     37 N          27.9089  -50.6731  -55.1351 N.am      7 UNK        -0.4444 
     38 C          27.4016  -49.7829  -54.2698 C.2       7 UNK         0.5104 
     39 O          26.1966  -49.5820  -54.1205 O.2       7 UNK        -0.5100 
     40 CA         28.4021  -48.9477  -53.4545 C.3       6 UNK         0.0396 
     41 CB         28.7458  -49.6411  -52.1278 C.3       6 UNK        -0.1801 
     42 N          29.6356  -48.6535  -54.1877 N.am      6 UNK        -0.4747 
     43 C          29.7133  -47.8761  -55.2765 C.2       6 UNK         0.5012 
     44 O          28.7535  -47.2732  -55.7495 O.2       6 UNK        -0.5003 
     45 CA         31.0798  -47.7732  -55.9771 C.3       5 UNK         0.0782 
     46 C46        31.9650  -46.7293  -55.2726 C.3       11 UNK        -0.0868 
     47 S47        33.4763  -46.3192  -56.2082 S.3       11 UNK        -0.2515 
     48 C48        32.9669  -44.8464  -57.1557 C.3       11 UNK         0.0199 
     49 N          31.7375  -49.0753  -56.0625 N.am      5 UNK        -0.4607 
     50 C          31.2886  -50.1107  -56.7800 C.2       4 UNK         0.5031 
     51 O          30.2899  -50.0624  -57.4982 O.2       4 UNK        -0.5119 
     52 CA         32.0648  -51.4291  -56.6268 C.3       4 UNK         0.0263 
     53 CB         33.2479  -51.4752  -57.6063 C.3       4 UNK        -0.1967 
     54 N          32.5496  -51.6355  -55.2564 N.am      4 UNK        -0.4237 
     55 C          31.7490  -51.8617  -54.2043 C.2       3 UNK         0.4908 
     56 O          30.5248  -51.9649  -54.2893 O.2       3 UNK        -0.5102 
     57 CA         32.4229  -51.9428  -52.8219 C.3       3 UNK         0.0241 
     58 CB         33.0686  -53.3219  -52.6109 C.3       3 UNK        -0.1971 
     59 N          33.4162  -50.8856  -52.5826 N.am      3 UNK        -0.4139 
     60 C          33.1324  -49.5760  -52.5628 C.2       2 UNK         0.5016 
     61 O          32.0054  -49.1250  -52.7784 O.2       2 UNK        -0.5319 
     62 CA         34.2894  -48.6020  -52.2933 C.3       2 UNK         0.0286 
     63 CB         35.2932  -48.6020  -53.4637 C.3       2 UNK        -0.1963 
     64 N          33.7212  -47.2657  -52.1129 N.am      2 UNK        -0.4790 
     65 C          34.3213  -46.1843  -51.6019 C.2       1 UNK         0.5024 
     66 O          35.4826  -46.1984  -51.1908 O.2       1 UNK        -0.4888 
     67 H67        29.0796  -44.6717  -51.9041 H         1 UNK         0.0892 
     68 H68        29.9634  -44.7960  -53.4235 H         1 UNK         0.0892 
     69 H69        29.3507  -46.2519  -52.6357 H         1 UNK         0.0892 
     70 H70        32.1644  -44.4791  -53.1015 H         1 UNK         0.3107 
     71 H71        33.3221  -44.7038  -50.4637 H         1 UNK         0.0773 
     72 H72        35.2610  -43.5608  -51.4616 H         1 UNK         0.0680 
     73 H73        34.6276  -43.7891  -53.0673 H         1 UNK         0.0680 
     74 H74        34.4743  -41.3238  -53.8729 H         1 UNK         0.0650 
     75 H75        33.0993  -40.3357  -53.4601 H         1 UNK         0.0650 
     76 H76        34.2102  -43.2448  -55.3372 H         1 UNK         0.1397 
     77 H77        30.3524  -44.1002  -56.9953 H         1 UNK         0.1363 
     78 H78        30.7342  -41.2057  -53.8556 H         1 UNK         0.1355 
     79 H79        28.5283  -41.8178  -54.6533 H         1 UNK         0.0707 
     80 H80        28.3708  -43.3684  -55.4537 H         1 UNK         0.0707 
     81 H81        26.2193  -41.8883  -56.1133 H         1 UNK         0.1034 
     82 H82        26.1920  -40.8881  -57.5228 H         1 UNK         0.1034 
     83 H83        25.0788  -42.8341  -58.2174 H         1 UNK         0.0482 
     84 H84        27.0268  -42.1606  -61.1664 H         1 UNK         0.3460 
     85 H85        26.0521  -41.3068  -59.9997 H         1 UNK         0.3460 
     86 H86        26.9504  -44.8992  -57.5835 H         1 UNK         0.2989 
     87 H87        26.0521  -46.0663  -54.9885 H         1 UNK         0.0559 
     88 H88        23.6138  -46.2461  -54.7071 H         1 UNK         0.0848 
     89 H89        24.2704  -47.8292  -55.0823 H         1 UNK         0.0848 
     90 H90        23.4278  -46.9061  -56.3251 H         1 UNK         0.0848 
     91 H91        27.1254  -47.3446  -56.3892 H         1 UNK         0.3144 
     92 H92        26.3659  -49.0034  -59.4558 H         1 UNK         0.0727 
     93 H93        28.6910  -47.2769  -58.4439 H         1 UNK         0.0790 
     94 H94        27.8128  -47.0374  -59.9455 H         1 UNK         0.0790 
     95 H95        28.7801  -48.4873  -59.7205 H         1 UNK         0.0790 
     96 H96        28.2878  -49.5212  -57.3845 H         1 UNK         0.3215 
     97 H97        26.2676  -51.8674  -55.5691 H         1 UNK         0.0863 
     98 H98        28.3305  -53.2224  -55.9328 H         1 UNK         0.0808 
     99 H99        28.7844  -52.1940  -57.2891 H         1 UNK         0.0808 
    100 H100       27.3315  -53.1750  -57.3775 H         1 UNK         0.0808 
    101 H101       28.9096  -50.8370  -55.1283 H         1 UNK         0.3118 
    102 H102       27.9139  -47.9992  -53.2234 H         1 UNK         0.0546 
    103 H103       29.2529  -50.5926  -52.2891 H         1 UNK         0.0828 
    104 H104       27.8448  -49.8442  -51.5477 H         1 UNK         0.0828 
    105 H105       29.3952  -49.0175  -51.5127 H         1 UNK         0.0828 
    106 H106       30.4942  -49.0494  -53.8075 H         1 UNK         0.3005 
    107 H107       30.8872  -47.4293  -56.9960 H         1 UNK         0.1257 
    108 H108       31.3965  -45.8297  -55.0533 H         1 UNK         0.0775 
    109 H109       32.2780  -47.1008  -54.3021 H         1 UNK         0.0775 
    110 H110       33.8366  -44.4334  -57.6688 H         1 UNK         0.0840 
    111 H111       32.2675  -45.1505  -57.9361 H         1 UNK         0.0840 
    112 H112       32.5569  -49.2007  -55.4891 H         1 UNK         0.2987 
    113 H113       31.3828  -52.2458  -56.8736 H         1 UNK         0.0785 
    114 H114       32.9068  -51.3428  -58.6342 H         1 UNK         0.0798 
    115 H115       33.7645  -52.4340  -57.5597 H         1 UNK         0.0798 
    116 H116       33.9766  -50.6896  -57.4014 H         1 UNK         0.0798 
    117 H117       33.5457  -51.5738  -55.1037 H         1 UNK         0.3079 
    118 H118       31.6356  -51.8232  -52.0743 H         1 UNK         0.0794 
    119 H119       33.4467  -53.4310  -51.5941 H         1 UNK         0.0786 
    120 H120       33.8982  -53.4929  -53.2979 H         1 UNK         0.0786 
    121 H121       32.3428  -54.1207  -52.7709 H         1 UNK         0.0786 
    122 H122       34.3636  -51.1844  -52.3994 H         1 UNK         0.3032 
    123 H123       34.7888  -48.9032  -51.3699 H         1 UNK         0.1094 
    124 H124       34.8155  -48.3271  -54.4040 H         1 UNK         0.0794 
    125 H125       36.1103  -47.9017  -53.2910 H         1 UNK         0.0794 
    126 H126       35.7440  -49.5853  -53.6014 H         1 UNK         0.0794 
    127 H127       32.7359  -47.2161  -52.3427 H         1 UNK         0.3016 
@<TRIPOS>BOND
     1    1    2 1    
     2    1   67 1    
     3    1   68 1    
     4    1   69 1    
     5    2    3 2    
     6    2    4 am   BACKBONE|DICT|INTERRES
     7    4    5 1    
     8    4   70 1    
     9    5    6 1    
    10    5   65 1    
    11    5   71 1    
    12    6    7 1    
    13    6   72 1    
    14    6   73 1    
    15    7    8 1    
    16    8    9 1    
    17    8   74 1    
    18    8   75 1    
    19    9   10 ar   
    20    9   14 ar   
    21   10   11 ar   
    22   10   76 1    
    23   11   12 ar   
    24   11   48 1    
    25   12   13 ar   
    26   12   77 1    
    27   13   14 ar   
    28   13   15 1    
    29   14   78 1    
    30   15   16 1    
    31   15   79 1    
    32   15   80 1    
    33   16   17 1    
    34   17   18 1    
    35   17   81 1    
    36   17   82 1    
    37   18   19 1    
    38   18   22 1    
    39   18   83 1    
    40   19   20 am   BACKBONE|DICT|INTERRES
    41   19   21 2    
    42   20   84 1    
    43   20   85 1    
    44   22   23 am   BACKBONE|DICT|INTERRES
    45   22   86 1    
    46   23   24 2    
    47   23   25 1    
    48   25   26 1    
    49   25   27 1    
    50   25   87 1    
    51   26   88 1    
    52   26   89 1    
    53   26   90 1    
    54   27   28 am   BACKBONE|DICT|INTERRES
    55   27   91 1    
    56   28   29 2    
    57   28   30 1    
    58   30   31 1    
    59   30   32 1    
    60   30   92 1    
    61   31   93 1    
    62   31   94 1    
    63   31   95 1    
    64   32   33 am   BACKBONE|DICT|INTERRES
    65   32   96 1    
    66   33   34 2    
    67   33   35 1    
    68   35   36 1    
    69   35   37 1    
    70   35   97 1    
    71   36   98 1    
    72   36   99 1    
    73   36  100 1    
    74   37   38 am   BACKBONE|DICT|INTERRES
    75   37  101 1    
    76   38   39 2    
    77   38   40 1    
    78   40   41 1    
    79   40   42 1    
    80   40  102 1    
    81   41  103 1    
    82   41  104 1    
    83   41  105 1    
    84   42   43 am   BACKBONE|DICT|INTERRES
    85   42  106 1    
    86   43   44 2    
    87   43   45 1    
    88   45   46 1    
    89   45   49 1    
    90   45  107 1    
    91   46   47 1    
    92   46  108 1    
    93   46  109 1    
    94   47   48 1    
    95   48  110 1    
    96   48  111 1    
    97   49   50 am   BACKBONE|DICT|INTERRES
    98   49  112 1    
    99   50   51 2    
   100   50   52 1    
   101   52   53 1    
   102   52   54 1    
   103   52  113 1    
   104   53  114 1    
   105   53  115 1    
   106   53  116 1    
   107   54   55 am   BACKBONE|DICT|INTERRES
   108   54  117 1    
   109   55   56 2    
   110   55   57 1    
   111   57   58 1    
   112   57   59 1    
   113   57  118 1    
   114   58  119 1    
   115   58  120 1    
   116   58  121 1    
   117   59   60 am   BACKBONE|DICT|INTERRES
   118   59  122 1    
   119   60   61 2    
   120   60   62 1    
   121   62   63 1    
   122   62   64 1    
   123   62  123 1    
   124   63  124 1    
   125   63  125 1    
   126   63  126 1    
   127   64   65 am   BACKBONE|DICT|INTERRES
   128   64  127 1    
   129   65   66 2    
@<TRIPOS>SUBSTRUCTURE
     1 UNK         1 GROUP             0       ****    0 ROOT    
