@<TRIPOS>MOLECULE
3R134
127   129    1
SMALL
USER_CHARGES


@<TRIPOS>ATOM
      1 CA         36.1926  -44.1636  -47.7527 C.3       0 UNK        -0.1968 
      2 C          36.2323  -44.0672  -49.2710 C.2       0 UNK         0.4852 
      3 O          36.7432  -43.0829  -49.8076 O.2       0 UNK        -0.5359 
      4 N          35.7011  -45.0798  -49.9632 N.am      1 UNK        -0.4300 
      5 CA         35.6765  -45.2026  -51.4192 C.3       1 UNK         0.0863 
      6 C6         34.6134  -44.2840  -52.0853 C.3       11 UNK        -0.0953 
      7 S7         35.0968  -43.7696  -53.7696 S.3       11 UNK        -0.2369 
      8 C8         34.1236  -42.2460  -53.9802 C.3       11 UNK         0.0226 
      9 C9         32.6520  -42.5471  -54.2248 C.ar      11 UNK        -0.0699 
     10 C10        31.7825  -42.7288  -53.1457 C.ar      11 UNK        -0.0804 
     11 C11        30.4314  -43.0179  -53.3569 C.ar      11 UNK        -0.0871 
     12 C12        29.9440  -43.0771  -54.6671 C.ar      11 UNK        -0.1008 
     13 C13        30.8047  -42.9096  -55.7550 C.ar      11 UNK        -0.0735 
     14 C14        32.1589  -42.6462  -55.5295 C.ar      11 UNK        -0.0945 
     15 C15        30.2658  -43.0392  -57.1694 C.3       11 UNK         0.0169 
     16 S16        29.9868  -44.7864  -57.5812 S.3       11 UNK        -0.2669 
     17 C17        29.2361  -44.6440  -59.2353 C.3       11 UNK        -0.0850 
     18 CA         27.6981  -44.4347  -59.2037 C.3       10 UNK         0.0855 
     19 C          27.1470  -44.2989  -60.6555 C.2       10 UNK         0.5543 
     20 N          26.3410  -45.2263  -61.1612 N.am      10 UNK        -0.7343 
     21 O          27.4618  -43.3266  -61.3371 O.2       10 UNK        -0.5027 
     22 N          27.0193  -45.4460  -58.3781 N.am      10 UNK        -0.4495 
     23 C          25.7412  -45.3858  -57.9788 C.2       10 UNK         0.4903 
     24 O          25.0203  -44.4002  -58.1422 O.2       10 UNK        -0.4860 
     25 CA         25.1716  -46.6514  -57.3042 C.3       9 UNK         0.0227 
     26 CB         23.6393  -46.7672  -57.4448 C.3       9 UNK        -0.1964 
     27 N          25.8329  -47.8849  -57.7520 N.am      9 UNK        -0.4231 
     28 C          25.9077  -48.3576  -59.0068 C.2       9 UNK         0.5014 
     29 O          25.3454  -47.8340  -59.9698 O.2       9 UNK        -0.5270 
     30 CA         26.8062  -49.5796  -59.2523 C.3       8 UNK         0.0284 
     31 CB         28.0966  -49.1472  -59.9723 C.3       8 UNK        -0.1977 
     32 N          27.1682  -50.2717  -58.0105 N.am      8 UNK        -0.4342 
     33 C          26.7665  -51.5070  -57.6859 C.2       8 UNK         0.5039 
     34 O          26.0209  -52.1936  -58.3863 O.2       8 UNK        -0.5547 
     35 CA         27.2944  -52.0962  -56.3682 C.3       7 UNK         0.0281 
     36 CB         28.6727  -52.7448  -56.5783 C.3       7 UNK        -0.1963 
     37 N          27.3712  -51.1349  -55.2660 N.am      7 UNK        -0.4444 
     38 C          26.3073  -50.6515  -54.6085 C.2       7 UNK         0.5104 
     39 O          25.1411  -50.8604  -54.9425 O.2       7 UNK        -0.5100 
     40 CA         26.5894  -49.8177  -53.3498 C.3       6 UNK         0.0396 
     41 CB         26.9773  -50.7324  -52.1763 C.3       6 UNK        -0.1801 
     42 N          27.6611  -48.8513  -53.5817 N.am      6 UNK        -0.4747 
     43 C          27.4689  -47.5534  -53.8576 C.2       6 UNK         0.5012 
     44 O          26.3592  -47.0215  -53.8867 O.2       6 UNK        -0.5003 
     45 CA         28.7252  -46.7110  -54.1854 C.3       5 UNK         0.0782 
     46 C46        29.2918  -46.0322  -52.9095 C.3       11 UNK        -0.0868 
     47 S47        28.2867  -44.5912  -52.3982 S.3       11 UNK        -0.2515 
     48 C48        29.5252  -43.2695  -52.1543 C.3       11 UNK         0.0199 
     49 N          29.7564  -47.4830  -54.8909 N.am      5 UNK        -0.4607 
     50 C          29.5766  -48.1162  -56.0605 C.2       4 UNK         0.5031 
     51 O          28.5284  -48.0821  -56.7047 O.2       4 UNK        -0.5119 
     52 CA         30.7244  -49.0008  -56.5768 C.3       4 UNK         0.0263 
     53 CB         31.6161  -48.2018  -57.5392 C.3       4 UNK        -0.1967 
     54 N          31.5556  -49.5935  -55.5245 N.am      4 UNK        -0.4237 
     55 C          31.1293  -50.3072  -54.4705 C.2       3 UNK         0.4908 
     56 O          29.9481  -50.6003  -54.2799 O.2       3 UNK        -0.5102 
     57 CA         32.1801  -50.7459  -53.4325 C.3       3 UNK         0.0241 
     58 CB         32.3817  -52.2688  -53.4936 C.3       3 UNK        -0.1971 
     59 N          33.4850  -50.0811  -53.5539 N.am      3 UNK        -0.4139 
     60 C          33.7093  -48.7680  -53.4004 C.2       2 UNK         0.5016 
     61 O          32.8224  -47.9439  -53.1596 O.2       2 UNK        -0.5319 
     62 CA         35.1595  -48.3070  -53.6361 C.3       2 UNK         0.0286 
     63 CB         35.4691  -48.2682  -55.1431 C.3       2 UNK        -0.1963 
     64 N          35.4222  -46.9806  -53.0775 N.am      2 UNK        -0.4790 
     65 C          35.4856  -46.6898  -51.7738 C.2       1 UNK         0.5024 
     66 O          35.4043  -47.5364  -50.8776 O.2       1 UNK        -0.4888 
     67 H67        35.7095  -45.0804  -47.4148 H         1 UNK         0.0892 
     68 H68        35.6437  -43.3188  -47.3375 H         1 UNK         0.0892 
     69 H69        37.2045  -44.1448  -47.3488 H         1 UNK         0.0892 
     70 H70        35.3479  -45.9025  -49.4881 H         1 UNK         0.3107 
     71 H71        36.6707  -44.9245  -51.7763 H         1 UNK         0.0773 
     72 H72        34.4839  -43.3759  -51.4952 H         1 UNK         0.0680 
     73 H73        33.6318  -44.7618  -52.1156 H         1 UNK         0.0680 
     74 H74        34.2423  -41.6042  -53.1060 H         1 UNK         0.0650 
     75 H75        34.5323  -41.6863  -54.8228 H         1 UNK         0.0650 
     76 H76        32.1650  -42.6605  -52.1367 H         1 UNK         0.1397 
     77 H77        28.8991  -43.2884  -54.8474 H         1 UNK         0.1363 
     78 H78        32.8303  -42.5223  -56.3682 H         1 UNK         0.1355 
     79 H79        30.9576  -42.6000  -57.8899 H         1 UNK         0.0707 
     80 H80        29.3287  -42.4872  -57.2559 H         1 UNK         0.0707 
     81 H81        29.4789  -45.5545  -59.7865 H         1 UNK         0.1034 
     82 H82        29.7258  -43.8301  -59.7739 H         1 UNK         0.1034 
     83 H83        27.5120  -43.4711  -58.7259 H         1 UNK         0.0482 
     84 H84        26.0579  -46.0334  -60.6168 H         1 UNK         0.3460 
     85 H85        25.9964  -45.1149  -62.1012 H         1 UNK         0.3460 
     86 H86        27.5541  -46.2755  -58.1608 H         1 UNK         0.2989 
     87 H87        25.3971  -46.5515  -56.2437 H         1 UNK         0.0559 
     88 H88        23.2633  -47.6649  -56.9542 H         1 UNK         0.0848 
     89 H89        23.3291  -46.7999  -58.4896 H         1 UNK         0.0848 
     90 H90        23.1384  -45.9147  -56.9844 H         1 UNK         0.0848 
     91 H91        26.4131  -48.3344  -57.0560 H         1 UNK         0.3144 
     92 H92        26.2564  -50.2467  -59.9193 H         1 UNK         0.0727 
     93 H93        28.7322  -50.0047  -60.1935 H         1 UNK         0.0790 
     94 H94        28.6795  -48.4430  -59.3779 H         1 UNK         0.0790 
     95 H95        27.8702  -48.6600  -60.9218 H         1 UNK         0.0790 
     96 H96        27.7694  -49.7592  -57.3731 H         1 UNK         0.3215 
     97 H97        26.6009  -52.8853  -56.0682 H         1 UNK         0.0863 
     98 H98        29.0191  -53.2419  -55.6719 H         1 UNK         0.0808 
     99 H99        29.4277  -52.0137  -56.8657 H         1 UNK         0.0808 
    100 H100       28.6331  -53.4988  -57.3657 H         1 UNK         0.0808 
    101 H101       28.3016  -50.9309  -54.9038 H         1 UNK         0.3118 
    102 H102       25.6665  -49.3019  -53.0759 H         1 UNK         0.0546 
    103 H103       26.1971  -51.4696  -51.9816 H         1 UNK         0.0828 
    104 H104       27.1164  -50.1596  -51.2594 H         1 UNK         0.0828 
    105 H105       27.9012  -51.2785  -52.3719 H         1 UNK         0.0828 
    106 H106       28.6024  -49.2259  -53.6345 H         1 UNK         0.3005 
    107 H107       28.4101  -45.9308  -54.8827 H         1 UNK         0.1257 
    108 H108       30.3152  -45.7003  -53.0903 H         1 UNK         0.0775 
    109 H109       29.3588  -46.7370  -52.0784 H         1 UNK         0.0775 
    110 H110       29.0042  -42.3429  -51.9106 H         1 UNK         0.0840 
    111 H111       30.1219  -43.5270  -51.2776 H         1 UNK         0.0840 
    112 H112       30.6514  -47.5708  -54.4279 H         1 UNK         0.2987 
    113 H113       30.2739  -49.8219  -57.1359 H         1 UNK         0.0785 
    114 H114       32.1198  -47.3775  -57.0319 H         1 UNK         0.0798 
    115 H115       31.0270  -47.7706  -58.3501 H         1 UNK         0.0798 
    116 H116       32.3778  -48.8337  -57.9962 H         1 UNK         0.0798 
    117 H117       32.5448  -49.4063  -55.5829 H         1 UNK         0.3079 
    118 H118       31.7742  -50.4940  -52.4506 H         1 UNK         0.0794 
    119 H119       32.8059  -52.5823  -54.4484 H         1 UNK         0.0786 
    120 H120       31.4335  -52.7948  -53.3709 H         1 UNK         0.0786 
    121 H121       33.0444  -52.6147  -52.7001 H         1 UNK         0.0786 
    122 H122       34.2690  -50.6814  -53.7685 H         1 UNK         0.3032 
    123 H123       35.8304  -49.0201  -53.1511 H         1 UNK         0.1094 
    124 H124       34.8146  -47.5733  -55.6718 H         1 UNK         0.0794 
    125 H125       36.4991  -47.9619  -55.3277 H         1 UNK         0.0794 
    126 H126       35.3425  -49.2497  -55.6017 H         1 UNK         0.0794 
    127 H127       35.4414  -46.2090  -53.7313 H         1 UNK         0.3016 
@<TRIPOS>BOND
     1    1    2 1    
     2    1   67 1    
     3    1   68 1    
     4    1   69 1    
     5    2    3 2    
     6    2    4 am   BACKBONE|DICT|INTERRES
     7    4    5 1    
     8    4   70 1    
     9    5    6 1    
    10    5   65 1    
    11    5   71 1    
    12    6    7 1    
    13    6   72 1    
    14    6   73 1    
    15    7    8 1    
    16    8    9 1    
    17    8   74 1    
    18    8   75 1    
    19    9   10 ar   
    20    9   14 ar   
    21   10   11 ar   
    22   10   76 1    
    23   11   12 ar   
    24   11   48 1    
    25   12   13 ar   
    26   12   77 1    
    27   13   14 ar   
    28   13   15 1    
    29   14   78 1    
    30   15   16 1    
    31   15   79 1    
    32   15   80 1    
    33   16   17 1    
    34   17   18 1    
    35   17   81 1    
    36   17   82 1    
    37   18   19 1    
    38   18   22 1    
    39   18   83 1    
    40   19   20 am   BACKBONE|DICT|INTERRES
    41   19   21 2    
    42   20   84 1    
    43   20   85 1    
    44   22   23 am   BACKBONE|DICT|INTERRES
    45   22   86 1    
    46   23   24 2    
    47   23   25 1    
    48   25   26 1    
    49   25   27 1    
    50   25   87 1    
    51   26   88 1    
    52   26   89 1    
    53   26   90 1    
    54   27   28 am   BACKBONE|DICT|INTERRES
    55   27   91 1    
    56   28   29 2    
    57   28   30 1    
    58   30   31 1    
    59   30   32 1    
    60   30   92 1    
    61   31   93 1    
    62   31   94 1    
    63   31   95 1    
    64   32   33 am   BACKBONE|DICT|INTERRES
    65   32   96 1    
    66   33   34 2    
    67   33   35 1    
    68   35   36 1    
    69   35   37 1    
    70   35   97 1    
    71   36   98 1    
    72   36   99 1    
    73   36  100 1    
    74   37   38 am   BACKBONE|DICT|INTERRES
    75   37  101 1    
    76   38   39 2    
    77   38   40 1    
    78   40   41 1    
    79   40   42 1    
    80   40  102 1    
    81   41  103 1    
    82   41  104 1    
    83   41  105 1    
    84   42   43 am   BACKBONE|DICT|INTERRES
    85   42  106 1    
    86   43   44 2    
    87   43   45 1    
    88   45   46 1    
    89   45   49 1    
    90   45  107 1    
    91   46   47 1    
    92   46  108 1    
    93   46  109 1    
    94   47   48 1    
    95   48  110 1    
    96   48  111 1    
    97   49   50 am   BACKBONE|DICT|INTERRES
    98   49  112 1    
    99   50   51 2    
   100   50   52 1    
   101   52   53 1    
   102   52   54 1    
   103   52  113 1    
   104   53  114 1    
   105   53  115 1    
   106   53  116 1    
   107   54   55 am   BACKBONE|DICT|INTERRES
   108   54  117 1    
   109   55   56 2    
   110   55   57 1    
   111   57   58 1    
   112   57   59 1    
   113   57  118 1    
   114   58  119 1    
   115   58  120 1    
   116   58  121 1    
   117   59   60 am   BACKBONE|DICT|INTERRES
   118   59  122 1    
   119   60   61 2    
   120   60   62 1    
   121   62   63 1    
   122   62   64 1    
   123   62  123 1    
   124   63  124 1    
   125   63  125 1    
   126   63  126 1    
   127   64   65 am   BACKBONE|DICT|INTERRES
   128   64  127 1    
   129   65   66 2    
@<TRIPOS>SUBSTRUCTURE
     1 UNK         1 GROUP             0       ****    0 ROOT    
