@<TRIPOS>MOLECULE
3R134
127   129    1
SMALL
USER_CHARGES


@<TRIPOS>ATOM
      1 CA         32.4515  -46.2529  -50.6317 C.3       0 UNK        -0.1968 
      2 C          33.8492  -45.8238  -51.0509 C.2       0 UNK         0.4852 
      3 O          34.4191  -44.9106  -50.4513 O.2       0 UNK        -0.5359 
      4 N          34.3967  -46.4755  -52.0790 N.am      1 UNK        -0.4300 
      5 CA         35.7051  -46.1854  -52.6657 C.3       1 UNK         0.0863 
      6 C6         35.7021  -44.9531  -53.6186 C.3       11 UNK        -0.0953 
      7 S7         34.2926  -44.9065  -54.7884 S.3       11 UNK        -0.2369 
      8 C8         33.4538  -43.3666  -54.2887 C.3       11 UNK         0.0226 
      9 C9         31.9389  -43.5047  -54.3080 C.ar      11 UNK        -0.0699 
     10 C10        31.2184  -43.5125  -53.1095 C.ar      11 UNK        -0.0804 
     11 C11        29.8219  -43.5784  -53.1185 C.ar      11 UNK        -0.0871 
     12 C12        29.1453  -43.6615  -54.3398 C.ar      11 UNK        -0.1008 
     13 C13        29.8564  -43.6609  -55.5445 C.ar      11 UNK        -0.0735 
     14 C14        31.2519  -43.5783  -55.5227 C.ar      11 UNK        -0.0945 
     15 C15        29.1198  -43.7512  -56.8706 C.3       11 UNK         0.0169 
     16 S16        28.4025  -42.1515  -57.3451 S.3       11 UNK        -0.2669 
     17 C17        27.9406  -42.4643  -59.0834 C.3       11 UNK        -0.0850 
     18 CA         26.5209  -43.0700  -59.2222 C.3       10 UNK         0.0855 
     19 C          25.9860  -42.9115  -60.6708 C.2       10 UNK         0.5543 
     20 N          25.3064  -41.8110  -60.9614 N.am      10 UNK        -0.7343 
     21 O          26.2151  -43.7509  -61.5398 O.2       10 UNK        -0.5027 
     22 N          26.5002  -44.4760  -58.7991 N.am      10 UNK        -0.4495 
     23 C          25.4126  -45.1387  -58.3997 C.2       10 UNK         0.4903 
     24 O          24.3138  -44.6051  -58.2408 O.2       10 UNK        -0.4860 
     25 CA         25.5454  -46.6476  -58.1195 C.3       9 UNK         0.0227 
     26 CB         25.0472  -47.4704  -59.3231 C.3       9 UNK        -0.1964 
     27 N          26.8629  -47.1254  -57.6718 N.am      9 UNK        -0.4231 
     28 C          28.0266  -47.1882  -58.3376 C.2       9 UNK         0.5014 
     29 O          28.2224  -46.6574  -59.4310 O.2       9 UNK        -0.5270 
     30 CA         29.1644  -47.9952  -57.6811 C.3       8 UNK         0.0284 
     31 CB         30.0475  -47.1033  -56.7950 C.3       8 UNK        -0.1977 
     32 N          28.6793  -49.1256  -56.8870 N.am      8 UNK        -0.4342 
     33 C          28.0672  -50.2123  -57.3790 C.2       8 UNK         0.5039 
     34 O          27.8890  -50.4190  -58.5798 O.2       8 UNK        -0.5547 
     35 CA         27.5489  -51.2315  -56.3535 C.3       7 UNK         0.0281 
     36 CB         28.6774  -52.1628  -55.8809 C.3       7 UNK        -0.1963 
     37 N          26.9474  -50.5629  -55.1986 N.am      7 UNK        -0.4444 
     38 C          25.6832  -50.1214  -55.1531 C.2       7 UNK         0.5104 
     39 O          24.8654  -50.2882  -56.0581 O.2       7 UNK        -0.5100 
     40 CA         25.2515  -49.3623  -53.8843 C.3       6 UNK         0.0396 
     41 CB         24.6169  -50.3297  -52.8728 C.3       6 UNK        -0.1801 
     42 N          26.3450  -48.6332  -53.2349 N.am      6 UNK        -0.4747 
     43 C          26.9491  -47.5520  -53.7495 C.2       6 UNK         0.5012 
     44 O          26.6408  -47.0467  -54.8278 O.2       6 UNK        -0.5003 
     45 CA         28.1287  -46.9656  -52.9477 C.3       5 UNK         0.0782 
     46 C46        27.6069  -45.9387  -51.9157 C.3       11 UNK        -0.0868 
     47 S47        28.9481  -45.1280  -50.9845 S.3       11 UNK        -0.2515 
     48 C48        29.0523  -43.5086  -51.8070 C.3       11 UNK         0.0199 
     49 N          28.9902  -47.9894  -52.3362 N.am      5 UNK        -0.4607 
     50 C          29.6055  -48.9707  -53.0062 C.2       4 UNK         0.5031 
     51 O          29.4117  -49.2063  -54.2004 O.2       4 UNK        -0.5119 
     52 CA         30.5589  -49.8728  -52.2073 C.3       4 UNK         0.0263 
     53 CB         29.7772  -51.0277  -51.5611 C.3       4 UNK        -0.1967 
     54 N          31.5966  -50.4267  -53.0806 N.am      4 UNK        -0.4237 
     55 C          32.5704  -49.6994  -53.6407 C.2       3 UNK         0.4908 
     56 O          32.8054  -48.5209  -53.3476 O.2       3 UNK        -0.5102 
     57 CA         33.4074  -50.4010  -54.7198 C.3       3 UNK         0.0241 
     58 CB         32.5809  -50.6749  -55.9899 C.3       3 UNK        -0.1971 
     59 N          34.5181  -49.5206  -55.0483 N.am      3 UNK        -0.4139 
     60 C          35.7781  -49.8797  -55.3065 C.2       2 UNK         0.5016 
     61 O          36.1459  -51.0431  -55.4741 O.2       2 UNK        -0.5319 
     62 CA         36.8105  -48.7365  -55.3578 C.3       2 UNK         0.0286 
     63 CB         37.1005  -48.3362  -56.8132 C.3       2 UNK        -0.1963 
     64 N          36.3928  -47.5450  -54.6050 N.am      2 UNK        -0.4790 
     65 C          36.2498  -47.4892  -53.2723 C.2       1 UNK         0.5024 
     66 O          36.5169  -48.4304  -52.5231 O.2       1 UNK        -0.4888 
     67 H67        31.9058  -45.4084  -50.2117 H         1 UNK         0.0892 
     68 H68        31.8815  -46.6293  -51.4817 H         1 UNK         0.0892 
     69 H69        32.5061  -47.0355  -49.8758 H         1 UNK         0.0892 
     70 H70        33.8759  -47.2290  -52.5268 H         1 UNK         0.3107 
     71 H71        36.3937  -45.9565  -51.8492 H         1 UNK         0.0773 
     72 H72        35.6973  -44.0503  -53.0080 H         1 UNK         0.0680 
     73 H73        36.6336  -44.8879  -54.1837 H         1 UNK         0.0680 
     74 H74        33.7569  -42.5646  -54.9630 H         1 UNK         0.0650 
     75 H75        33.7742  -43.0609  -53.2923 H         1 UNK         0.0650 
     76 H76        31.7431  -43.4439  -52.1662 H         1 UNK         0.1397 
     77 H77        28.0649  -43.7100  -54.3579 H         1 UNK         0.1363 
     78 H78        31.8073  -43.5673  -56.4506 H         1 UNK         0.1355 
     79 H79        29.7941  -44.0910  -57.6575 H         1 UNK         0.0707 
     80 H80        28.3270  -44.4950  -56.7903 H         1 UNK         0.0707 
     81 H81        27.9942  -41.5001  -59.5934 H         1 UNK         0.1034 
     82 H82        28.6875  -43.0954  -59.5688 H         1 UNK         0.1034 
     83 H83        25.8521  -42.5101  -58.5646 H         1 UNK         0.0482 
     84 H84        24.9630  -41.6802  -61.9003 H         1 UNK         0.3460 
     85 H85        25.1211  -41.1116  -60.2590 H         1 UNK         0.3460 
     86 H86        27.3211  -45.0318  -59.0180 H         1 UNK         0.2989 
     87 H87        24.8752  -46.8581  -57.2845 H         1 UNK         0.0559 
     88 H88        24.0252  -47.1962  -59.5878 H         1 UNK         0.0848 
     89 H89        25.0494  -48.5378  -59.1004 H         1 UNK         0.0848 
     90 H90        25.6648  -47.3103  -60.2075 H         1 UNK         0.0848 
     91 H91        26.8674  -47.4603  -56.7121 H         1 UNK         0.3144 
     92 H92        29.7863  -48.3994  -58.4825 H         1 UNK         0.0727 
     93 H93        29.4720  -46.6265  -56.0016 H         1 UNK         0.0790 
     94 H94        30.5217  -46.3185  -57.3838 H         1 UNK         0.0790 
     95 H95        30.8472  -47.6738  -56.3227 H         1 UNK         0.0790 
     96 H96        28.8516  -49.0846  -55.8826 H         1 UNK         0.3215 
     97 H97        26.7920  -51.8456  -56.8471 H         1 UNK         0.0863 
     98 H98        28.2946  -52.9441  -55.2243 H         1 UNK         0.0808 
     99 H99        29.4510  -51.6209  -55.3379 H         1 UNK         0.0808 
    100 H100       29.1563  -52.6565  -56.7275 H         1 UNK         0.0808 
    101 H101       27.5717  -50.3177  -54.4412 H         1 UNK         0.3118 
    102 H102       24.4922  -48.6351  -54.1801 H         1 UNK         0.0546 
    103 H103       25.3317  -51.0744  -52.5205 H         1 UNK         0.0828 
    104 H104       23.7804  -50.8683  -53.3206 H         1 UNK         0.0828 
    105 H105       24.2282  -49.7982  -52.0040 H         1 UNK         0.0828 
    106 H106       26.6697  -48.9867  -52.3461 H         1 UNK         0.3005 
    107 H107       28.7531  -46.4306  -53.6659 H         1 UNK         0.1257 
    108 H108       26.9508  -46.4262  -51.1920 H         1 UNK         0.0775 
    109 H109       26.9976  -45.1762  -52.4050 H         1 UNK         0.0775 
    110 H110       28.0523  -43.1013  -51.9638 H         1 UNK         0.0840 
    111 H111       29.5527  -42.8114  -51.1333 H         1 UNK         0.0840 
    112 H112       29.1869  -47.8635  -51.3538 H         1 UNK         0.2987 
    113 H113       31.0390  -49.2804  -51.4254 H         1 UNK         0.0785 
    114 H114       29.0144  -50.6523  -50.8777 H         1 UNK         0.0798 
    115 H115       30.4352  -51.6762  -50.9823 H         1 UNK         0.0798 
    116 H116       29.2720  -51.6428  -52.3074 H         1 UNK         0.0798 
    117 H117       31.4613  -51.3771  -53.3917 H         1 UNK         0.3079 
    118 H118       33.7853  -51.3396  -54.3087 H         1 UNK         0.0794 
    119 H119       33.2010  -51.0944  -56.7822 H         1 UNK         0.0786 
    120 H120       32.1177  -49.7658  -56.3750 H         1 UNK         0.0786 
    121 H121       31.7835  -51.3914  -55.7953 H         1 UNK         0.0786 
    122 H122       34.3283  -48.5435  -54.8649 H         1 UNK         0.3032 
    123 H123       37.7334  -49.1141  -54.9115 H         1 UNK         0.1094 
    124 H124       36.2138  -47.9363  -57.3068 H         1 UNK         0.0794 
    125 H125       37.8861  -47.5824  -56.8690 H         1 UNK         0.0794 
    126 H126       37.4371  -49.1960  -57.3944 H         1 UNK         0.0794 
    127 H127       36.1313  -46.7302  -55.1445 H         1 UNK         0.3016 
@<TRIPOS>BOND
     1    1    2 1    
     2    1   67 1    
     3    1   68 1    
     4    1   69 1    
     5    2    3 2    
     6    2    4 am   BACKBONE|DICT|INTERRES
     7    4    5 1    
     8    4   70 1    
     9    5    6 1    
    10    5   65 1    
    11    5   71 1    
    12    6    7 1    
    13    6   72 1    
    14    6   73 1    
    15    7    8 1    
    16    8    9 1    
    17    8   74 1    
    18    8   75 1    
    19    9   10 ar   
    20    9   14 ar   
    21   10   11 ar   
    22   10   76 1    
    23   11   12 ar   
    24   11   48 1    
    25   12   13 ar   
    26   12   77 1    
    27   13   14 ar   
    28   13   15 1    
    29   14   78 1    
    30   15   16 1    
    31   15   79 1    
    32   15   80 1    
    33   16   17 1    
    34   17   18 1    
    35   17   81 1    
    36   17   82 1    
    37   18   19 1    
    38   18   22 1    
    39   18   83 1    
    40   19   20 am   BACKBONE|DICT|INTERRES
    41   19   21 2    
    42   20   84 1    
    43   20   85 1    
    44   22   23 am   BACKBONE|DICT|INTERRES
    45   22   86 1    
    46   23   24 2    
    47   23   25 1    
    48   25   26 1    
    49   25   27 1    
    50   25   87 1    
    51   26   88 1    
    52   26   89 1    
    53   26   90 1    
    54   27   28 am   BACKBONE|DICT|INTERRES
    55   27   91 1    
    56   28   29 2    
    57   28   30 1    
    58   30   31 1    
    59   30   32 1    
    60   30   92 1    
    61   31   93 1    
    62   31   94 1    
    63   31   95 1    
    64   32   33 am   BACKBONE|DICT|INTERRES
    65   32   96 1    
    66   33   34 2    
    67   33   35 1    
    68   35   36 1    
    69   35   37 1    
    70   35   97 1    
    71   36   98 1    
    72   36   99 1    
    73   36  100 1    
    74   37   38 am   BACKBONE|DICT|INTERRES
    75   37  101 1    
    76   38   39 2    
    77   38   40 1    
    78   40   41 1    
    79   40   42 1    
    80   40  102 1    
    81   41  103 1    
    82   41  104 1    
    83   41  105 1    
    84   42   43 am   BACKBONE|DICT|INTERRES
    85   42  106 1    
    86   43   44 2    
    87   43   45 1    
    88   45   46 1    
    89   45   49 1    
    90   45  107 1    
    91   46   47 1    
    92   46  108 1    
    93   46  109 1    
    94   47   48 1    
    95   48  110 1    
    96   48  111 1    
    97   49   50 am   BACKBONE|DICT|INTERRES
    98   49  112 1    
    99   50   51 2    
   100   50   52 1    
   101   52   53 1    
   102   52   54 1    
   103   52  113 1    
   104   53  114 1    
   105   53  115 1    
   106   53  116 1    
   107   54   55 am   BACKBONE|DICT|INTERRES
   108   54  117 1    
   109   55   56 2    
   110   55   57 1    
   111   57   58 1    
   112   57   59 1    
   113   57  118 1    
   114   58  119 1    
   115   58  120 1    
   116   58  121 1    
   117   59   60 am   BACKBONE|DICT|INTERRES
   118   59  122 1    
   119   60   61 2    
   120   60   62 1    
   121   62   63 1    
   122   62   64 1    
   123   62  123 1    
   124   63  124 1    
   125   63  125 1    
   126   63  126 1    
   127   64   65 am   BACKBONE|DICT|INTERRES
   128   64  127 1    
   129   65   66 2    
@<TRIPOS>SUBSTRUCTURE
     1 UNK         1 GROUP             0       ****    0 ROOT    
