@<TRIPOS>MOLECULE
3R134
127   129    1
SMALL
USER_CHARGES


@<TRIPOS>ATOM
      1 CA         31.2483  -42.9442  -50.5935 C.3       0 UNK        -0.1968 
      2 C          32.5888  -43.6128  -50.3245 C.2       0 UNK         0.4852 
      3 O          33.5338  -42.9438  -49.9042 O.2       0 UNK        -0.5359 
      4 N          32.6758  -44.9236  -50.5660 N.am      1 UNK        -0.4300 
      5 CA         33.8586  -45.7586  -50.3697 C.3       1 UNK         0.0863 
      6 C6         34.9611  -45.5343  -51.4450 C.3       11 UNK        -0.0953 
      7 S7         34.4049  -45.8204  -53.1610 S.3       11 UNK        -0.2369 
      8 C8         34.2487  -44.1198  -53.7829 C.3       11 UNK         0.0226 
      9 C9         33.2040  -44.0106  -54.8847 C.ar      11 UNK        -0.0699 
     10 C10        33.5477  -44.2546  -56.2186 C.ar      11 UNK        -0.0804 
     11 C11        32.6059  -44.0723  -57.2371 C.ar      11 UNK        -0.0871 
     12 C12        31.3181  -43.6399  -56.9117 C.ar      11 UNK        -0.1008 
     13 C13        30.9488  -43.4281  -55.5807 C.ar      11 UNK        -0.0735 
     14 C14        31.8981  -43.6191  -54.5717 C.ar      11 UNK        -0.0945 
     15 C15        29.5444  -42.9463  -55.2334 C.3       11 UNK         0.0169 
     16 S16        28.2700  -44.2038  -55.5757 S.3       11 UNK        -0.2669 
     17 C17        27.9328  -43.9403  -57.3536 C.3       11 UNK        -0.0850 
     18 CA         26.4262  -44.0348  -57.7055 C.3       10 UNK         0.0855 
     19 C          26.1724  -43.6552  -59.1949 C.2       10 UNK         0.5543 
     20 N          25.5650  -44.5087  -60.0102 N.am      10 UNK        -0.7343 
     21 O          26.5286  -42.5577  -59.6166 O.2       10 UNK        -0.5027 
     22 N          25.8605  -45.3306  -57.2971 N.am      10 UNK        -0.4495 
     23 C          24.5669  -45.5472  -57.0213 C.2       10 UNK         0.4903 
     24 O          23.6937  -44.6845  -57.1190 O.2       10 UNK        -0.4860 
     25 CA         24.1661  -46.9581  -56.5542 C.3       9 UNK         0.0227 
     26 CB         23.4987  -47.7340  -57.6999 C.3       9 UNK        -0.1964 
     27 N          25.2995  -47.7207  -56.0180 N.am      9 UNK        -0.4231 
     28 C          25.8239  -47.5105  -54.8000 C.2       9 UNK         0.5014 
     29 O          25.3348  -46.7235  -53.9870 O.2       9 UNK        -0.5270 
     30 CA         27.1212  -48.2526  -54.4202 C.3       8 UNK         0.0284 
     31 CB         27.1420  -48.6845  -52.9381 C.3       8 UNK        -0.1977 
     32 N          27.4829  -49.3689  -55.2989 N.am      8 UNK        -0.4342 
     33 C          26.8257  -50.5221  -55.4826 C.2       8 UNK         0.5039 
     34 O          25.7907  -50.8319  -54.8899 O.2       8 UNK        -0.5547 
     35 CA         27.4235  -51.4597  -56.5518 C.3       7 UNK         0.0281 
     36 CB         26.5320  -52.6854  -56.8464 C.3       7 UNK        -0.1963 
     37 N          27.7517  -50.7439  -57.7941 N.am      7 UNK        -0.4444 
     38 C          26.9102  -50.0222  -58.5524 C.2       7 UNK         0.5104 
     39 O          25.7074  -49.9105  -58.3210 O.2       7 UNK        -0.5100 
     40 CA         27.5354  -49.2654  -59.7424 C.3       6 UNK         0.0396 
     41 CB         26.5939  -48.1973  -60.3393 C.3       6 UNK        -0.1801 
     42 N          28.8411  -48.6786  -59.4146 N.am      6 UNK        -0.4747 
     43 C          29.0995  -47.7783  -58.4529 C.2       6 UNK         0.5012 
     44 O          28.2352  -47.2647  -57.7358 O.2       6 UNK        -0.5003 
     45 CA         30.5879  -47.4174  -58.2700 C.3       5 UNK         0.0782 
     46 C46        31.0324  -46.3046  -59.2499 C.3       11 UNK        -0.0868 
     47 S47        32.8409  -46.0390  -59.1973 S.3       11 UNK        -0.2515 
     48 C48        32.9880  -44.2940  -58.6943 C.3       11 UNK         0.0199 
     49 N          30.9337  -47.0950  -56.8845 N.am      5 UNK        -0.4607 
     50 C          30.8496  -47.9421  -55.8539 C.2       4 UNK         0.5031 
     51 O          30.3019  -49.0476  -55.9044 O.2       4 UNK        -0.5119 
     52 CA         31.5236  -47.4759  -54.5545 C.3       4 UNK         0.0263 
     53 CB         30.5210  -46.8299  -53.5891 C.3       4 UNK        -0.1967 
     54 N          32.2287  -48.5590  -53.8657 N.am      4 UNK        -0.4237 
     55 C          33.2716  -49.2391  -54.3645 C.2       3 UNK         0.4908 
     56 O          33.7812  -49.0102  -55.4632 O.2       3 UNK        -0.5102 
     57 CA         33.8597  -50.3314  -53.4584 C.3       3 UNK         0.0241 
     58 CB         35.1616  -50.9445  -54.0105 C.3       3 UNK        -0.1971 
     59 N          34.1117  -49.7761  -52.1297 N.am      3 UNK        -0.4139 
     60 C          33.7340  -50.3297  -50.9714 C.2       2 UNK         0.5016 
     61 O          33.1517  -51.4118  -50.8865 O.2       2 UNK        -0.5319 
     62 CA         34.0551  -49.5515  -49.6800 C.3       2 UNK         0.0286 
     63 CB         35.2619  -50.1803  -48.9637 C.3       2 UNK        -0.1963 
     64 N          34.3107  -48.1176  -49.8739 N.am      2 UNK        -0.4790 
     65 C          33.3945  -47.2239  -50.2714 C.2       1 UNK         0.5024 
     66 O          32.2312  -47.5232  -50.5583 O.2       1 UNK        -0.4888 
     67 H67        31.3766  -42.1091  -51.2816 H         1 UNK         0.0892 
     68 H68        30.5280  -43.6356  -51.0310 H         1 UNK         0.0892 
     69 H69        30.8286  -42.5589  -49.6647 H         1 UNK         0.0892 
     70 H70        31.8645  -45.4571  -50.8543 H         1 UNK         0.3107 
     71 H71        34.2783  -45.5066  -49.3934 H         1 UNK         0.0773 
     72 H72        35.3564  -44.5213  -51.3592 H         1 UNK         0.0680 
     73 H73        35.8166  -46.1846  -51.2568 H         1 UNK         0.0680 
     74 H74        33.9846  -43.4480  -52.9655 H         1 UNK         0.0650 
     75 H75        35.2198  -43.7841  -54.1493 H         1 UNK         0.0650 
     76 H76        34.5539  -44.5660  -56.4648 H         1 UNK         0.1397 
     77 H77        30.6041  -43.4602  -57.7008 H         1 UNK         0.1363 
     78 H78        31.6294  -43.4371  -53.5409 H         1 UNK         0.1355 
     79 H79        29.3240  -42.0241  -55.7725 H         1 UNK         0.0707 
     80 H80        29.4868  -42.6922  -54.1739 H         1 UNK         0.0707 
     81 H81        28.5019  -44.6716  -57.9267 H         1 UNK         0.1034 
     82 H82        28.3154  -42.9606  -57.6444 H         1 UNK         0.1034 
     83 H83        25.9180  -43.2638  -57.1230 H         1 UNK         0.0482 
     84 H84        25.2466  -45.3986  -59.6659 H         1 UNK         0.3460 
     85 H85        25.4032  -44.2462  -60.9696 H         1 UNK         0.3460 
     86 H86        26.5259  -46.0909  -57.2124 H         1 UNK         0.2989 
     87 H87        23.4247  -46.8432  -55.7606 H         1 UNK         0.0559 
     88 H88        23.2288  -48.7449  -57.3935 H         1 UNK         0.0848 
     89 H89        24.1468  -47.8093  -58.5722 H         1 UNK         0.0848 
     90 H90        22.5826  -47.2375  -58.0222 H         1 UNK         0.0848 
     91 H91        25.7304  -48.4020  -56.6315 H         1 UNK         0.3144 
     92 H92        27.9111  -47.5153  -54.5618 H         1 UNK         0.0727 
     93 H93        28.0642  -49.2085  -52.6879 H         1 UNK         0.0790 
     94 H94        26.3071  -49.3435  -52.6985 H         1 UNK         0.0790 
     95 H95        27.0723  -47.8197  -52.2772 H         1 UNK         0.0790 
     96 H96        28.3496  -49.2338  -55.8151 H         1 UNK         0.3215 
     97 H97        28.3668  -51.8263  -56.1434 H         1 UNK         0.0863 
     98 H98        26.9913  -53.3421  -57.5850 H         1 UNK         0.0808 
     99 H99        25.5506  -52.3930  -57.2213 H         1 UNK         0.0808 
    100 H100       26.3710  -53.2760  -55.9437 H         1 UNK         0.0808 
    101 H101       28.7280  -50.7452  -58.0551 H         1 UNK         0.3118 
    102 H102       27.7160  -50.0136  -60.5155 H         1 UNK         0.0546 
    103 H103       26.3403  -47.4291  -59.6098 H         1 UNK         0.0828 
    104 H104       25.6595  -48.6445  -60.6805 H         1 UNK         0.0828 
    105 H105       27.0479  -47.7040  -61.1985 H         1 UNK         0.0828 
    106 H106       29.6166  -49.0348  -59.9574 H         1 UNK         0.3005 
    107 H107       31.1604  -48.3162  -58.5118 H         1 UNK         0.1257 
    108 H108       30.7763  -46.5744  -60.2763 H         1 UNK         0.0775 
    109 H109       30.5056  -45.3726  -59.0478 H         1 UNK         0.0775 
    110 H110       34.0188  -43.9726  -58.8513 H         1 UNK         0.0840 
    111 H111       32.3786  -43.6726  -59.3526 H         1 UNK         0.0840 
    112 H112       31.3740  -46.1958  -56.7446 H         1 UNK         0.2987 
    113 H113       32.2655  -46.7245  -54.8256 H         1 UNK         0.0785 
    114 H114       31.0368  -46.3272  -52.7720 H         1 UNK         0.0798 
    115 H115       29.8458  -47.5660  -53.1553 H         1 UNK         0.0798 
    116 H116       29.9164  -46.0779  -54.0944 H         1 UNK         0.0798 
    117 H117       31.8873  -48.8057  -52.9478 H         1 UNK         0.3079 
    118 H118       33.1077  -51.1216  -53.4047 H         1 UNK         0.0794 
    119 H119       34.9997  -51.3889  -54.9934 H         1 UNK         0.0786 
    120 H120       35.5348  -51.7332  -53.3570 H         1 UNK         0.0786 
    121 H121       35.9472  -50.1950  -54.1138 H         1 UNK         0.0786 
    122 H122       34.5576  -48.8694  -52.1031 H         1 UNK         0.3032 
    123 H123       33.1828  -49.6489  -49.0293 H         1 UNK         0.1094 
    124 H124       35.0945  -51.2415  -48.7733 H         1 UNK         0.0794 
    125 H125       36.1729  -50.0964  -49.5578 H         1 UNK         0.0794 
    126 H126       35.4433  -49.7066  -47.9987 H         1 UNK         0.0794 
    127 H127       35.2433  -47.7949  -49.6565 H         1 UNK         0.3016 
@<TRIPOS>BOND
     1    1    2 1    
     2    1   67 1    
     3    1   68 1    
     4    1   69 1    
     5    2    3 2    
     6    2    4 am   BACKBONE|DICT|INTERRES
     7    4    5 1    
     8    4   70 1    
     9    5    6 1    
    10    5   65 1    
    11    5   71 1    
    12    6    7 1    
    13    6   72 1    
    14    6   73 1    
    15    7    8 1    
    16    8    9 1    
    17    8   74 1    
    18    8   75 1    
    19    9   10 ar   
    20    9   14 ar   
    21   10   11 ar   
    22   10   76 1    
    23   11   12 ar   
    24   11   48 1    
    25   12   13 ar   
    26   12   77 1    
    27   13   14 ar   
    28   13   15 1    
    29   14   78 1    
    30   15   16 1    
    31   15   79 1    
    32   15   80 1    
    33   16   17 1    
    34   17   18 1    
    35   17   81 1    
    36   17   82 1    
    37   18   19 1    
    38   18   22 1    
    39   18   83 1    
    40   19   20 am   BACKBONE|DICT|INTERRES
    41   19   21 2    
    42   20   84 1    
    43   20   85 1    
    44   22   23 am   BACKBONE|DICT|INTERRES
    45   22   86 1    
    46   23   24 2    
    47   23   25 1    
    48   25   26 1    
    49   25   27 1    
    50   25   87 1    
    51   26   88 1    
    52   26   89 1    
    53   26   90 1    
    54   27   28 am   BACKBONE|DICT|INTERRES
    55   27   91 1    
    56   28   29 2    
    57   28   30 1    
    58   30   31 1    
    59   30   32 1    
    60   30   92 1    
    61   31   93 1    
    62   31   94 1    
    63   31   95 1    
    64   32   33 am   BACKBONE|DICT|INTERRES
    65   32   96 1    
    66   33   34 2    
    67   33   35 1    
    68   35   36 1    
    69   35   37 1    
    70   35   97 1    
    71   36   98 1    
    72   36   99 1    
    73   36  100 1    
    74   37   38 am   BACKBONE|DICT|INTERRES
    75   37  101 1    
    76   38   39 2    
    77   38   40 1    
    78   40   41 1    
    79   40   42 1    
    80   40  102 1    
    81   41  103 1    
    82   41  104 1    
    83   41  105 1    
    84   42   43 am   BACKBONE|DICT|INTERRES
    85   42  106 1    
    86   43   44 2    
    87   43   45 1    
    88   45   46 1    
    89   45   49 1    
    90   45  107 1    
    91   46   47 1    
    92   46  108 1    
    93   46  109 1    
    94   47   48 1    
    95   48  110 1    
    96   48  111 1    
    97   49   50 am   BACKBONE|DICT|INTERRES
    98   49  112 1    
    99   50   51 2    
   100   50   52 1    
   101   52   53 1    
   102   52   54 1    
   103   52  113 1    
   104   53  114 1    
   105   53  115 1    
   106   53  116 1    
   107   54   55 am   BACKBONE|DICT|INTERRES
   108   54  117 1    
   109   55   56 2    
   110   55   57 1    
   111   57   58 1    
   112   57   59 1    
   113   57  118 1    
   114   58  119 1    
   115   58  120 1    
   116   58  121 1    
   117   59   60 am   BACKBONE|DICT|INTERRES
   118   59  122 1    
   119   60   61 2    
   120   60   62 1    
   121   62   63 1    
   122   62   64 1    
   123   62  123 1    
   124   63  124 1    
   125   63  125 1    
   126   63  126 1    
   127   64   65 am   BACKBONE|DICT|INTERRES
   128   64  127 1    
   129   65   66 2    
@<TRIPOS>SUBSTRUCTURE
     1 UNK         1 GROUP             0       ****    0 ROOT    
