@<TRIPOS>MOLECULE
3R134
127   129    1
SMALL
USER_CHARGES


@<TRIPOS>ATOM
      1 CA         35.6518  -46.1734  -50.3385 C.3       0 UNK        -0.1968 
      2 C          35.2257  -46.9281  -51.5887 C.2       0 UNK         0.4852 
      3 O          34.4345  -47.8675  -51.4887 O.2       0 UNK        -0.5359 
      4 N          35.7446  -46.5223  -52.7576 N.am      1 UNK        -0.4300 
      5 CA         35.4702  -47.0961  -54.0844 C.3       1 UNK         0.0863 
      6 C6         34.0169  -46.8287  -54.5727 C.3       11 UNK        -0.0953 
      7 S7         33.5594  -45.0627  -54.5828 S.3       11 UNK        -0.2369 
      8 C8         32.4036  -45.0574  -55.9934 C.3       11 UNK         0.0226 
      9 C9         31.4124  -43.8969  -56.0118 C.ar      11 UNK        -0.0699 
     10 C10        30.8640  -43.3817  -54.8322 C.ar      11 UNK        -0.0804 
     11 C11        29.8196  -42.4511  -54.8735 C.ar      11 UNK        -0.0871 
     12 C12        29.3749  -41.9778  -56.1112 C.ar      11 UNK        -0.1008 
     13 C13        29.9293  -42.4639  -57.2979 C.ar      11 UNK        -0.0735 
     14 C14        30.9495  -43.4171  -57.2402 C.ar      11 UNK        -0.0945 
     15 C15        29.4088  -41.9899  -58.6464 C.3       11 UNK         0.0169 
     16 S16        28.1407  -43.1196  -59.3092 S.3       11 UNK        -0.2669 
     17 C17        26.6385  -42.6052  -58.4029 C.3       11 UNK        -0.0850 
     18 CA         26.2868  -43.5256  -57.1940 C.3       10 UNK         0.0855 
     19 C          25.0885  -43.0104  -56.3391 C.2       10 UNK         0.5543 
     20 N          24.9858  -41.7084  -56.1053 N.am      10 UNK        -0.7343 
     21 O          24.2714  -43.7793  -55.8354 O.2       10 UNK        -0.5027 
     22 N          26.1677  -44.9474  -57.5494 N.am      10 UNK        -0.4495 
     23 C          25.2888  -45.5085  -58.3910 C.2       10 UNK         0.4903 
     24 O          24.4621  -44.8787  -59.0534 O.2       10 UNK        -0.4860 
     25 CA         25.3522  -47.0476  -58.4920 C.3       9 UNK         0.0227 
     26 CB         24.6041  -47.6170  -59.7165 C.3       9 UNK        -0.1964 
     27 N          26.7313  -47.5454  -58.4116 N.am      9 UNK        -0.4231 
     28 C          27.7285  -47.3371  -59.2857 C.2       9 UNK         0.5014 
     29 O          27.5774  -46.8456  -60.4047 O.2       9 UNK        -0.5270 
     30 CA         29.1507  -47.7053  -58.8258 C.3       8 UNK         0.0284 
     31 CB         29.9514  -46.4299  -58.5234 C.3       8 UNK        -0.1977 
     32 N          29.1672  -48.5529  -57.6316 N.am      8 UNK        -0.4342 
     33 C          29.1501  -49.8914  -57.6471 C.2       8 UNK         0.5039 
     34 O          29.1381  -50.5685  -58.6756 O.2       8 UNK        -0.5547 
     35 CA         29.1404  -50.5936  -56.2791 C.3       7 UNK         0.0281 
     36 CB         30.5769  -50.8148  -55.7827 C.3       7 UNK        -0.1963 
     37 N          28.3769  -49.8568  -55.2669 N.am      7 UNK        -0.4444 
     38 C          27.0399  -49.7402  -55.2787 C.2       7 UNK         0.5104 
     39 O          26.3174  -50.2608  -56.1282 O.2       7 UNK        -0.5100 
     40 CA         26.3895  -48.8761  -54.1831 C.3       6 UNK         0.0396 
     41 CB         25.9943  -49.7490  -52.9819 C.3       6 UNK        -0.1801 
     42 N          27.2266  -47.7691  -53.7170 N.am      6 UNK        -0.4747 
     43 C          27.6897  -46.7651  -54.4761 C.2       6 UNK         0.5012 
     44 O          27.4604  -46.6552  -55.6805 O.2       6 UNK        -0.5003 
     45 CA         28.6139  -45.7449  -53.7873 C.3       5 UNK         0.0782 
     46 C46        27.8149  -44.4994  -53.3159 C.3       11 UNK        -0.0868 
     47 S47        28.8301  -43.2996  -52.3779 S.3       11 UNK        -0.2515 
     48 C48        29.1414  -41.9703  -53.5938 C.3       11 UNK         0.0199 
     49 N          29.4112  -46.3400  -52.7079 N.am      5 UNK        -0.4607 
     50 C          30.3138  -47.3182  -52.8539 C.2       4 UNK         0.5031 
     51 O          30.5587  -47.8598  -53.9351 O.2       4 UNK        -0.5119 
     52 CA         31.0696  -47.7284  -51.5748 C.3       4 UNK         0.0263 
     53 CB         30.1450  -47.8424  -50.3408 C.3       4 UNK        -0.1967 
     54 N          31.8699  -48.9475  -51.7363 N.am      4 UNK        -0.4237 
     55 C          31.4275  -50.1896  -51.9814 C.2       3 UNK         0.4908 
     56 O          30.2379  -50.4887  -52.1067 O.2       3 UNK        -0.5102 
     57 CA         32.5119  -51.2648  -52.1485 C.3       3 UNK         0.0241 
     58 CB         31.9304  -52.6908  -52.2832 C.3       3 UNK        -0.1971 
     59 N          33.3368  -50.9145  -53.3038 N.am      3 UNK        -0.4139 
     60 C          34.5190  -51.4561  -53.6282 C.2       2 UNK         0.5016 
     61 O          35.0662  -52.3583  -52.9932 O.2       2 UNK        -0.5319 
     62 CA         35.2219  -50.8707  -54.8659 C.3       2 UNK         0.0286 
     63 CB         34.6345  -51.4565  -56.1604 C.3       2 UNK        -0.1963 
     64 N          35.1207  -49.4094  -54.8954 N.am      2 UNK        -0.4790 
     65 C          35.8696  -48.5934  -54.1387 C.2       1 UNK         0.5024 
     66 O          36.8476  -48.9850  -53.4962 O.2       1 UNK        -0.4888 
     67 H67        36.3416  -45.3610  -50.5663 H         1 UNK         0.0892 
     68 H68        34.7791  -45.7486  -49.8431 H         1 UNK         0.0892 
     69 H69        36.1434  -46.8516  -49.6417 H         1 UNK         0.0892 
     70 H70        36.4081  -45.7607  -52.7561 H         1 UNK         0.3107 
     71 H71        36.1469  -46.5909  -54.7752 H         1 UNK         0.0773 
     72 H72        33.8883  -47.2033  -55.5894 H         1 UNK         0.0680 
     73 H73        33.2941  -47.3596  -53.9515 H         1 UNK         0.0680 
     74 H74        32.9863  -45.0781  -56.9156 H         1 UNK         0.0650 
     75 H75        31.8193  -45.9786  -55.9696 H         1 UNK         0.0650 
     76 H76        31.1989  -43.7591  -53.8763 H         1 UNK         0.1397 
     77 H77        28.5747  -41.2520  -56.1547 H         1 UNK         0.1363 
     78 H78        31.3529  -43.8174  -58.1603 H         1 UNK         0.1355 
     79 H79        29.0138  -40.9754  -58.5770 H         1 UNK         0.0707 
     80 H80        30.2355  -41.9417  -59.3568 H         1 UNK         0.0707 
     81 H81        25.8086  -42.5821  -59.1107 H         1 UNK         0.1034 
     82 H82        26.7742  -41.5725  -58.0820 H         1 UNK         0.1034 
     83 H83        27.1340  -43.5008  -56.5112 H         1 UNK         0.0482 
     84 H84        25.6459  -41.0467  -56.4794 H         1 UNK         0.3460 
     85 H85        24.2207  -41.3791  -55.5373 H         1 UNK         0.3460 
     86 H86        26.7517  -45.5725  -57.0007 H         1 UNK         0.2989 
     87 H87        24.8504  -47.4264  -57.6004 H         1 UNK         0.0559 
     88 H88        24.9886  -47.2139  -60.6536 H         1 UNK         0.0848 
     89 H89        23.5429  -47.3698  -59.6721 H         1 UNK         0.0848 
     90 H90        24.6820  -48.7033  -59.7597 H         1 UNK         0.0848 
     91 H91        26.9912  -47.9295  -57.5129 H         1 UNK         0.3144 
     92 H92        29.6396  -48.2262  -59.6518 H         1 UNK         0.0727 
     93 H93        30.9829  -46.6618  -58.2595 H         1 UNK         0.0790 
     94 H94        29.5077  -45.8645  -57.7025 H         1 UNK         0.0790 
     95 H95        29.9805  -45.7705  -59.3921 H         1 UNK         0.0790 
     96 H96        29.1653  -48.0822  -56.7366 H         1 UNK         0.3215 
     97 H97        28.6721  -51.5716  -56.4110 H         1 UNK         0.0863 
     98 H98        31.1120  -49.8735  -55.6535 H         1 UNK         0.0808 
     99 H99        31.1421  -51.4205  -56.4919 H         1 UNK         0.0808 
    100 H100       30.5845  -51.3401  -54.8293 H         1 UNK         0.0808 
    101 H101       28.9062  -49.3897  -54.5398 H         1 UNK         0.3118 
    102 H102       25.4806  -48.4426  -54.6056 H         1 UNK         0.0546 
    103 H103       25.4452  -49.1749  -52.2356 H         1 UNK         0.0828 
    104 H104       26.8682  -50.1859  -52.4960 H         1 UNK         0.0828 
    105 H105       25.3492  -50.5721  -53.2928 H         1 UNK         0.0828 
    106 H106       27.4944  -47.7841  -52.7434 H         1 UNK         0.3005 
    107 H107       29.3138  -45.4354  -54.5619 H         1 UNK         0.1257 
    108 H108       26.9905  -44.8014  -52.6670 H         1 UNK         0.0775 
    109 H109       27.3558  -43.9931  -54.1662 H         1 UNK         0.0775 
    110 H110       28.1903  -41.4860  -53.8213 H         1 UNK         0.0840 
    111 H111       29.7709  -41.2103  -53.1294 H         1 UNK         0.0840 
    112 H112       29.2890  -45.9216  -51.7971 H         1 UNK         0.2987 
    113 H113       31.7879  -46.9303  -51.3815 H         1 UNK         0.0785 
    114 H114       30.6933  -48.2059  -49.4716 H         1 UNK         0.0798 
    115 H115       29.7227  -46.8765  -50.0626 H         1 UNK         0.0798 
    116 H116       29.3135  -48.5258  -50.5171 H         1 UNK         0.0798 
    117 H117       32.8758  -48.7852  -51.6768 H         1 UNK         0.3079 
    118 H118       33.1379  -51.2314  -51.2543 H         1 UNK         0.0794 
    119 H119       31.2695  -52.9222  -51.4469 H         1 UNK         0.0786 
    120 H120       32.7145  -53.4474  -52.2851 H         1 UNK         0.0786 
    121 H121       31.3516  -52.8100  -53.1985 H         1 UNK         0.0786 
    122 H122       32.9800  -50.1592  -53.8714 H         1 UNK         0.3032 
    123 H123       36.2759  -51.1549  -54.8147 H         1 UNK         0.1094 
    124 H124       33.5869  -51.1869  -56.2928 H         1 UNK         0.0794 
    125 H125       35.1829  -51.1081  -57.0358 H         1 UNK         0.0794 
    126 H126       34.6929  -52.5460  -56.1560 H         1 UNK         0.0794 
    127 H127       34.3687  -49.0126  -55.4393 H         1 UNK         0.3016 
@<TRIPOS>BOND
     1    1    2 1    
     2    1   67 1    
     3    1   68 1    
     4    1   69 1    
     5    2    3 2    
     6    2    4 am   BACKBONE|DICT|INTERRES
     7    4    5 1    
     8    4   70 1    
     9    5    6 1    
    10    5   65 1    
    11    5   71 1    
    12    6    7 1    
    13    6   72 1    
    14    6   73 1    
    15    7    8 1    
    16    8    9 1    
    17    8   74 1    
    18    8   75 1    
    19    9   10 ar   
    20    9   14 ar   
    21   10   11 ar   
    22   10   76 1    
    23   11   12 ar   
    24   11   48 1    
    25   12   13 ar   
    26   12   77 1    
    27   13   14 ar   
    28   13   15 1    
    29   14   78 1    
    30   15   16 1    
    31   15   79 1    
    32   15   80 1    
    33   16   17 1    
    34   17   18 1    
    35   17   81 1    
    36   17   82 1    
    37   18   19 1    
    38   18   22 1    
    39   18   83 1    
    40   19   20 am   BACKBONE|DICT|INTERRES
    41   19   21 2    
    42   20   84 1    
    43   20   85 1    
    44   22   23 am   BACKBONE|DICT|INTERRES
    45   22   86 1    
    46   23   24 2    
    47   23   25 1    
    48   25   26 1    
    49   25   27 1    
    50   25   87 1    
    51   26   88 1    
    52   26   89 1    
    53   26   90 1    
    54   27   28 am   BACKBONE|DICT|INTERRES
    55   27   91 1    
    56   28   29 2    
    57   28   30 1    
    58   30   31 1    
    59   30   32 1    
    60   30   92 1    
    61   31   93 1    
    62   31   94 1    
    63   31   95 1    
    64   32   33 am   BACKBONE|DICT|INTERRES
    65   32   96 1    
    66   33   34 2    
    67   33   35 1    
    68   35   36 1    
    69   35   37 1    
    70   35   97 1    
    71   36   98 1    
    72   36   99 1    
    73   36  100 1    
    74   37   38 am   BACKBONE|DICT|INTERRES
    75   37  101 1    
    76   38   39 2    
    77   38   40 1    
    78   40   41 1    
    79   40   42 1    
    80   40  102 1    
    81   41  103 1    
    82   41  104 1    
    83   41  105 1    
    84   42   43 am   BACKBONE|DICT|INTERRES
    85   42  106 1    
    86   43   44 2    
    87   43   45 1    
    88   45   46 1    
    89   45   49 1    
    90   45  107 1    
    91   46   47 1    
    92   46  108 1    
    93   46  109 1    
    94   47   48 1    
    95   48  110 1    
    96   48  111 1    
    97   49   50 am   BACKBONE|DICT|INTERRES
    98   49  112 1    
    99   50   51 2    
   100   50   52 1    
   101   52   53 1    
   102   52   54 1    
   103   52  113 1    
   104   53  114 1    
   105   53  115 1    
   106   53  116 1    
   107   54   55 am   BACKBONE|DICT|INTERRES
   108   54  117 1    
   109   55   56 2    
   110   55   57 1    
   111   57   58 1    
   112   57   59 1    
   113   57  118 1    
   114   58  119 1    
   115   58  120 1    
   116   58  121 1    
   117   59   60 am   BACKBONE|DICT|INTERRES
   118   59  122 1    
   119   60   61 2    
   120   60   62 1    
   121   62   63 1    
   122   62   64 1    
   123   62  123 1    
   124   63  124 1    
   125   63  125 1    
   126   63  126 1    
   127   64   65 am   BACKBONE|DICT|INTERRES
   128   64  127 1    
   129   65   66 2    
@<TRIPOS>SUBSTRUCTURE
     1 UNK         1 GROUP             0       ****    0 ROOT    
