@<TRIPOS>MOLECULE
3R134
127   129    1
SMALL
USER_CHARGES


@<TRIPOS>ATOM
      1 CA         38.4495  -42.8053  -52.9944 C.3       0 UNK        -0.1968 
      2 C          37.6099  -43.4195  -54.1048 C.2       0 UNK         0.4852 
      3 O          38.1206  -43.6445  -55.2029 O.2       0 UNK        -0.5359 
      4 N          36.3266  -43.6877  -53.8274 N.am      1 UNK        -0.4300 
      5 CA         35.3727  -44.3123  -54.7531 C.3       1 UNK         0.0863 
      6 C6         33.9053  -44.1099  -54.2941 C.3       11 UNK        -0.0953 
      7 S7         33.5906  -44.6711  -52.5832 S.3       11 UNK        -0.2369 
      8 C8         32.3143  -45.9400  -52.8288 C.3       11 UNK         0.0226 
      9 C9         30.9146  -45.3709  -52.6614 C.ar      11 UNK        -0.0699 
     10 C10        30.2575  -45.5054  -51.4364 C.ar      11 UNK        -0.0804 
     11 C11        28.9576  -45.0219  -51.2686 C.ar      11 UNK        -0.0871 
     12 C12        28.3275  -44.3628  -52.3279 C.ar      11 UNK        -0.1008 
     13 C13        28.9705  -44.2283  -53.5639 C.ar      11 UNK        -0.0735 
     14 C14        30.2650  -44.7358  -53.7237 C.ar      11 UNK        -0.0945 
     15 C15        28.2737  -43.5323  -54.7260 C.3       11 UNK         0.0169 
     16 S16        26.6494  -44.2718  -55.0905 S.3       11 UNK        -0.2669 
     17 C17        26.2547  -43.5075  -56.7020 C.3       11 UNK        -0.0850 
     18 CA         26.0727  -44.5545  -57.8416 C.3       10 UNK         0.0855 
     19 C          25.6345  -43.9059  -59.1904 C.2       10 UNK         0.5543 
     20 N          26.0695  -44.4043  -60.3429 N.am      10 UNK        -0.7343 
     21 O          24.8606  -42.9516  -59.1971 O.2       10 UNK        -0.5027 
     22 N          27.1943  -45.5011  -57.9625 N.am      10 UNK        -0.4495 
     23 C          28.4664  -45.1902  -58.2464 C.2       10 UNK         0.4903 
     24 O          28.8871  -44.0407  -58.3779 O.2       10 UNK        -0.4860 
     25 CA         29.4405  -46.3643  -58.4404 C.3       9 UNK         0.0227 
     26 CB         30.1963  -46.6527  -57.1348 C.3       9 UNK        -0.1964 
     27 N          28.8064  -47.5993  -58.9111 N.am      9 UNK        -0.4231 
     28 C          28.1514  -47.7619  -60.0676 C.2       9 UNK         0.5014 
     29 O          27.9683  -46.8558  -60.8821 O.2       9 UNK        -0.5270 
     30 CA         27.5806  -49.1619  -60.3601 C.3       8 UNK         0.0284 
     31 CB         28.6833  -50.1251  -60.8423 C.3       8 UNK        -0.1977 
     32 N          26.7967  -49.7399  -59.2576 N.am      8 UNK        -0.4342 
     33 C          27.2036  -50.1129  -58.0359 C.2       8 UNK         0.5039 
     34 O          28.3681  -50.0324  -57.6393 O.2       8 UNK        -0.5547 
     35 CA         26.1098  -50.6211  -57.0819 C.3       7 UNK         0.0281 
     36 CB         26.5660  -51.8852  -56.3335 C.3       7 UNK        -0.1963 
     37 N          25.7223  -49.6058  -56.1014 N.am      7 UNK        -0.4444 
     38 C          25.2054  -48.3985  -56.3588 C.2       7 UNK         0.5104 
     39 O          25.0004  -47.9676  -57.4937 O.2       7 UNK        -0.5100 
     40 CA         24.8447  -47.5130  -55.1520 C.3       6 UNK         0.0396 
     41 CB         23.4850  -47.9189  -54.5515 C.3       6 UNK        -0.1801 
     42 N          25.8875  -47.4124  -54.1193 N.am      6 UNK        -0.4747 
     43 C          26.3479  -48.3646  -53.2954 C.2       6 UNK         0.5012 
     44 O          25.9398  -49.5294  -53.2951 O.2       6 UNK        -0.5003 
     45 CA         27.4309  -47.9397  -52.2841 C.3       5 UNK         0.0782 
     46 C46        26.7708  -47.4825  -50.9560 C.3       11 UNK        -0.0868 
     47 S47        27.9623  -47.0331  -49.6469 S.3       11 UNK        -0.2515 
     48 C48        28.2261  -45.2545  -49.9553 C.3       11 UNK         0.0199 
     49 N          28.4119  -49.0134  -52.0959 N.am      5 UNK        -0.4607 
     50 C          29.2926  -49.3842  -53.0325 C.2       4 UNK         0.5031 
     51 O          29.3904  -48.8339  -54.1319 O.2       4 UNK        -0.5119 
     52 CA         30.1902  -50.5877  -52.6949 C.3       4 UNK         0.0263 
     53 CB         29.4259  -51.9059  -52.9036 C.3       4 UNK        -0.1967 
     54 N          31.3780  -50.5890  -53.5503 N.am      4 UNK        -0.4237 
     55 C          32.4621  -49.8370  -53.3309 C.2       3 UNK         0.4908 
     56 O          32.6761  -49.2291  -52.2792 O.2       3 UNK        -0.5102 
     57 CA         33.4617  -49.7343  -54.4910 C.3       3 UNK         0.0241 
     58 CB         32.8026  -49.1407  -55.7532 C.3       3 UNK        -0.1971 
     59 N          34.5844  -48.8885  -54.0915 N.am      3 UNK        -0.4139 
     60 C          35.8062  -48.9156  -54.6331 C.2       2 UNK         0.5016 
     61 O          36.1433  -49.7083  -55.5159 O.2       2 UNK        -0.5319 
     62 CA         36.8089  -47.8669  -54.1071 C.3       2 UNK         0.0286 
     63 CB         38.1367  -47.8659  -54.8944 C.3       2 UNK        -0.1963 
     64 N          36.2654  -46.5004  -54.0485 N.am      2 UNK        -0.4790 
     65 C          35.7031  -45.7943  -55.0465 C.2       1 UNK         0.5024 
     66 O          35.4729  -46.2443  -56.1695 O.2       1 UNK        -0.4888 
     67 H67        37.8734  -42.6570  -52.0811 H         1 UNK         0.0892 
     68 H68        39.2940  -43.4532  -52.7609 H         1 UNK         0.0892 
     69 H69        38.8389  -41.8377  -53.3100 H         1 UNK         0.0892 
     70 H70        35.9575  -43.4749  -52.9109 H         1 UNK         0.3107 
     71 H71        35.4763  -43.7905  -55.7073 H         1 UNK         0.0773 
     72 H72        33.2174  -44.5929  -54.9900 H         1 UNK         0.0680 
     73 H73        33.6583  -43.0481  -54.3366 H         1 UNK         0.0680 
     74 H74        32.4798  -46.7158  -52.0825 H         1 UNK         0.0650 
     75 H75        32.4222  -46.4239  -53.8000 H         1 UNK         0.0650 
     76 H76        30.7467  -46.0145  -50.6170 H         1 UNK         0.1397 
     77 H77        27.3239  -43.9788  -52.2038 H         1 UNK         0.1363 
     78 H78        30.7712  -44.6339  -54.6727 H         1 UNK         0.1355 
     79 H79        28.1439  -42.4758  -54.4879 H         1 UNK         0.0707 
     80 H80        28.8949  -43.5780  -55.6215 H         1 UNK         0.0707 
     81 H81        25.3363  -42.9325  -56.5709 H         1 UNK         0.1034 
     82 H82        27.0209  -42.7786  -56.9701 H         1 UNK         0.1034 
     83 H83        25.2207  -45.1736  -57.5612 H         1 UNK         0.0482 
     84 H84        26.7065  -45.1911  -60.3637 H         1 UNK         0.3460 
     85 H85        25.7684  -43.9809  -61.2061 H         1 UNK         0.3460 
     86 H86        26.9415  -46.4772  -57.9012 H         1 UNK         0.2989 
     87 H87        30.1676  -46.0644  -59.1976 H         1 UNK         0.0559 
     88 H88        30.7368  -45.7695  -56.7937 H         1 UNK         0.0848 
     89 H89        30.9291  -47.4458  -57.2762 H         1 UNK         0.0848 
     90 H90        29.5220  -46.9574  -56.3323 H         1 UNK         0.0848 
     91 H91        28.8634  -48.4175  -58.3038 H         1 UNK         0.3144 
     92 H92        26.8759  -49.0410  -61.1846 H         1 UNK         0.0727 
     93 H93        28.2676  -51.0914  -61.1277 H         1 UNK         0.0790 
     94 H94        29.4406  -50.2995  -60.0774 H         1 UNK         0.0790 
     95 H95        29.1954  -49.7217  -61.7170 H         1 UNK         0.0790 
     96 H96        25.8013  -49.7787  -59.4333 H         1 UNK         0.3215 
     97 H97        25.2236  -50.8774  -57.6661 H         1 UNK         0.0863 
     98 H98        25.7642  -52.2950  -55.7190 H         1 UNK         0.0808 
     99 H99        27.4158  -51.6801  -55.6814 H         1 UNK         0.0808 
    100 H100       26.8713  -52.6649  -57.0325 H         1 UNK         0.0808 
    101 H101       25.8687  -49.8336  -55.1208 H         1 UNK         0.3118 
    102 H102       24.7251  -46.5012  -55.5401 H         1 UNK         0.0546 
    103 H103       23.4972  -48.9320  -54.1489 H         1 UNK         0.0828 
    104 H104       22.7014  -47.8839  -55.3095 H         1 UNK         0.0828 
    105 H105       23.1887  -47.2429  -53.7495 H         1 UNK         0.0828 
    106 H106       26.3152  -46.4957  -54.0652 H         1 UNK         0.3005 
    107 H107       27.9685  -47.0951  -52.7172 H         1 UNK         0.1257 
    108 H108       26.1376  -48.2774  -50.5565 H         1 UNK         0.0775 
    109 H109       26.1082  -46.6327  -51.1318 H         1 UNK         0.0775 
    110 H110       27.2668  -44.7347  -49.9377 H         1 UNK         0.0840 
    111 H111       28.8171  -44.8367  -49.1391 H         1 UNK         0.0840 
    112 H112       28.3636  -49.5158  -51.2221 H         1 UNK         0.2987 
    113 H113       30.4948  -50.5167  -51.6482 H         1 UNK         0.0785 
    114 H114       30.0428  -52.7667  -52.6448 H         1 UNK         0.0798 
    115 H115       29.1019  -52.0247  -53.9380 H         1 UNK         0.0798 
    116 H116       28.5339  -51.9478  -52.2771 H         1 UNK         0.0798 
    117 H117       31.2654  -51.0144  -54.4589 H         1 UNK         0.3079 
    118 H118       33.8264  -50.7413  -54.7048 H         1 UNK         0.0794 
    119 H119       31.9753  -49.7561  -56.1082 H         1 UNK         0.0786 
    120 H120       33.5142  -49.0592  -56.5750 H         1 UNK         0.0786 
    121 H121       32.4077  -48.1437  -55.5576 H         1 UNK         0.0786 
    122 H122       34.3887  -48.2653  -53.3183 H         1 UNK         0.3032 
    123 H123       37.0369  -48.1585  -53.0803 H         1 UNK         0.1094 
    124 H124       38.8451  -47.1503  -54.4768 H         1 UNK         0.0794 
    125 H125       38.6127  -48.8469  -54.8638 H         1 UNK         0.0794 
    126 H126       37.9829  -47.6101  -55.9434 H         1 UNK         0.0794 
    127 H127       36.3778  -46.0258  -53.1632 H         1 UNK         0.3016 
@<TRIPOS>BOND
     1    1    2 1    
     2    1   67 1    
     3    1   68 1    
     4    1   69 1    
     5    2    3 2    
     6    2    4 am   BACKBONE|DICT|INTERRES
     7    4    5 1    
     8    4   70 1    
     9    5    6 1    
    10    5   65 1    
    11    5   71 1    
    12    6    7 1    
    13    6   72 1    
    14    6   73 1    
    15    7    8 1    
    16    8    9 1    
    17    8   74 1    
    18    8   75 1    
    19    9   10 ar   
    20    9   14 ar   
    21   10   11 ar   
    22   10   76 1    
    23   11   12 ar   
    24   11   48 1    
    25   12   13 ar   
    26   12   77 1    
    27   13   14 ar   
    28   13   15 1    
    29   14   78 1    
    30   15   16 1    
    31   15   79 1    
    32   15   80 1    
    33   16   17 1    
    34   17   18 1    
    35   17   81 1    
    36   17   82 1    
    37   18   19 1    
    38   18   22 1    
    39   18   83 1    
    40   19   20 am   BACKBONE|DICT|INTERRES
    41   19   21 2    
    42   20   84 1    
    43   20   85 1    
    44   22   23 am   BACKBONE|DICT|INTERRES
    45   22   86 1    
    46   23   24 2    
    47   23   25 1    
    48   25   26 1    
    49   25   27 1    
    50   25   87 1    
    51   26   88 1    
    52   26   89 1    
    53   26   90 1    
    54   27   28 am   BACKBONE|DICT|INTERRES
    55   27   91 1    
    56   28   29 2    
    57   28   30 1    
    58   30   31 1    
    59   30   32 1    
    60   30   92 1    
    61   31   93 1    
    62   31   94 1    
    63   31   95 1    
    64   32   33 am   BACKBONE|DICT|INTERRES
    65   32   96 1    
    66   33   34 2    
    67   33   35 1    
    68   35   36 1    
    69   35   37 1    
    70   35   97 1    
    71   36   98 1    
    72   36   99 1    
    73   36  100 1    
    74   37   38 am   BACKBONE|DICT|INTERRES
    75   37  101 1    
    76   38   39 2    
    77   38   40 1    
    78   40   41 1    
    79   40   42 1    
    80   40  102 1    
    81   41  103 1    
    82   41  104 1    
    83   41  105 1    
    84   42   43 am   BACKBONE|DICT|INTERRES
    85   42  106 1    
    86   43   44 2    
    87   43   45 1    
    88   45   46 1    
    89   45   49 1    
    90   45  107 1    
    91   46   47 1    
    92   46  108 1    
    93   46  109 1    
    94   47   48 1    
    95   48  110 1    
    96   48  111 1    
    97   49   50 am   BACKBONE|DICT|INTERRES
    98   49  112 1    
    99   50   51 2    
   100   50   52 1    
   101   52   53 1    
   102   52   54 1    
   103   52  113 1    
   104   53  114 1    
   105   53  115 1    
   106   53  116 1    
   107   54   55 am   BACKBONE|DICT|INTERRES
   108   54  117 1    
   109   55   56 2    
   110   55   57 1    
   111   57   58 1    
   112   57   59 1    
   113   57  118 1    
   114   58  119 1    
   115   58  120 1    
   116   58  121 1    
   117   59   60 am   BACKBONE|DICT|INTERRES
   118   59  122 1    
   119   60   61 2    
   120   60   62 1    
   121   62   63 1    
   122   62   64 1    
   123   62  123 1    
   124   63  124 1    
   125   63  125 1    
   126   63  126 1    
   127   64   65 am   BACKBONE|DICT|INTERRES
   128   64  127 1    
   129   65   66 2    
@<TRIPOS>SUBSTRUCTURE
     1 UNK         1 GROUP             0       ****    0 ROOT    
