@<TRIPOS>MOLECULE
3R134
127   129    1
SMALL
USER_CHARGES


@<TRIPOS>ATOM
      1 CA         35.4587  -44.4102  -57.3056 C.3       0 UNK        -0.1968 
      2 C          34.7851  -44.0726  -55.9837 C.2       0 UNK         0.4852 
      3 O          34.4747  -42.9077  -55.7445 O.2       0 UNK        -0.5359 
      4 N          34.5652  -45.0867  -55.1417 N.am      1 UNK        -0.4300 
      5 CA         33.8828  -45.0842  -53.8466 C.3       1 UNK         0.0863 
      6 C6         34.5564  -44.1544  -52.7895 C.3       11 UNK        -0.0953 
      7 S7         33.5409  -43.8210  -51.3023 S.3       11 UNK        -0.2369 
      8 C8         32.7131  -42.2504  -51.7070 C.3       11 UNK         0.0226 
      9 C9         31.6109  -42.4508  -52.7350 C.ar      11 UNK        -0.0699 
     10 C10        30.3843  -43.0028  -52.3576 C.ar      11 UNK        -0.0804 
     11 C11        29.3902  -43.2397  -53.3128 C.ar      11 UNK        -0.0871 
     12 C12        29.6222  -42.8881  -54.6460 C.ar      11 UNK        -0.1008 
     13 C13        30.8389  -42.3130  -55.0366 C.ar      11 UNK        -0.0735 
     14 C14        31.8217  -42.0945  -54.0679 C.ar      11 UNK        -0.0945 
     15 C15        31.1472  -41.8917  -56.4751 C.3       11 UNK         0.0169 
     16 S16        29.9084  -42.3447  -57.7340 S.3       11 UNK        -0.2669 
     17 C17        30.2366  -44.1262  -57.9544 C.3       11 UNK        -0.0850 
     18 CA         29.0038  -44.8535  -58.5716 C.3       10 UNK         0.0855 
     19 C          29.3450  -45.9354  -59.6373 C.2       10 UNK         0.5543 
     20 N          28.4188  -46.8289  -59.9645 N.am      10 UNK        -0.7343 
     21 O          30.4412  -45.9658  -60.1901 O.2       10 UNK        -0.5027 
     22 N          28.1056  -45.4000  -57.5444 N.am      10 UNK        -0.4495 
     23 C          27.0053  -44.8039  -57.0731 C.2       10 UNK         0.4903 
     24 O          26.7091  -43.6308  -57.3023 O.2       10 UNK        -0.4860 
     25 CA         26.0523  -45.6829  -56.2300 C.3       9 UNK         0.0227 
     26 CB         24.6351  -45.0803  -56.1294 C.3       9 UNK        -0.1964 
     27 N          25.9675  -47.0878  -56.6678 N.am      9 UNK        -0.4231 
     28 C          25.6785  -47.5186  -57.9072 C.2       9 UNK         0.5014 
     29 O          25.5623  -46.7675  -58.8776 O.2       9 UNK        -0.5270 
     30 CA         25.5029  -49.0297  -58.1156 C.3       8 UNK         0.0284 
     31 CB         25.5213  -49.4237  -59.6120 C.3       8 UNK        -0.1977 
     32 N          26.4923  -49.8153  -57.3735 N.am      8 UNK        -0.4342 
     33 C          26.3272  -51.1163  -57.0937 C.2       8 UNK         0.5039 
     34 O          25.2926  -51.7439  -57.3280 O.2       8 UNK        -0.5547 
     35 CA         27.5198  -51.8587  -56.4771 C.3       7 UNK         0.0281 
     36 CB         28.6869  -51.9391  -57.4765 C.3       7 UNK        -0.1963 
     37 N          27.9672  -51.2715  -55.2147 N.am      7 UNK        -0.4444 
     38 C          27.2478  -51.2625  -54.0828 C.2       7 UNK         0.5104 
     39 O          26.1292  -51.7659  -53.9732 O.2       7 UNK        -0.5100 
     40 CA         27.8790  -50.5800  -52.8568 C.3       6 UNK         0.0396 
     41 CB         28.8171  -51.5506  -52.1227 C.3       6 UNK        -0.1801 
     42 N          28.6075  -49.3519  -53.1766 N.am      6 UNK        -0.4747 
     43 C          28.0675  -48.2493  -53.7163 C.2       6 UNK         0.5012 
     44 O          26.8823  -48.1431  -54.0354 O.2       6 UNK        -0.5003 
     45 CA         29.0426  -47.0935  -54.0094 C.3       5 UNK         0.0782 
     46 C46        29.5042  -46.3546  -52.7310 C.3       11 UNK        -0.0868 
     47 S47        28.1990  -45.3801  -51.9059 S.3       11 UNK        -0.2515 
     48 C48        28.0568  -43.8684  -52.9230 C.3       11 UNK         0.0199 
     49 N          30.1872  -47.5823  -54.7743 N.am      5 UNK        -0.4607 
     50 C          30.1378  -48.0262  -56.0363 C.2       4 UNK         0.5031 
     51 O          29.1202  -48.0096  -56.7328 O.2       4 UNK        -0.5119 
     52 CA         31.4480  -48.6022  -56.5983 C.3       4 UNK         0.0263 
     53 CB         32.3064  -47.4796  -57.2023 C.3       4 UNK        -0.1967 
     54 N          32.2261  -49.3236  -55.5827 N.am      4 UNK        -0.4237 
     55 C          31.8415  -50.4867  -55.0337 C.2       3 UNK         0.4908 
     56 O          30.8092  -51.0755  -55.3440 O.2       3 UNK        -0.5102 
     57 CA         32.7184  -51.0751  -53.9156 C.3       3 UNK         0.0241 
     58 CB         33.8577  -51.9176  -54.5099 C.3       3 UNK        -0.1971 
     59 N          33.2736  -50.0638  -53.0154 N.am      3 UNK        -0.4139 
     60 C          32.5546  -49.1907  -52.2969 C.2       2 UNK         0.5016 
     61 O          31.3241  -49.1637  -52.2854 O.2       2 UNK        -0.5319 
     62 CA         33.3324  -48.1324  -51.4965 C.3       2 UNK         0.0286 
     63 CB         34.7613  -48.5762  -51.1104 C.3       2 UNK        -0.1963 
     64 N          33.3751  -46.8329  -52.1803 N.am      2 UNK        -0.4790 
     65 C          33.8135  -46.5694  -53.4194 C.2       1 UNK         0.5024 
     66 O          34.1588  -47.4476  -54.2196 O.2       1 UNK        -0.4888 
     67 H67        34.8139  -44.1258  -58.1368 H         1 UNK         0.0892 
     68 H68        36.3966  -43.8635  -57.3988 H         1 UNK         0.0892 
     69 H69        35.6756  -45.4746  -57.3943 H         1 UNK         0.0892 
     70 H70        34.8436  -46.0274  -55.4019 H         1 UNK         0.3107 
     71 H71        32.8590  -44.7517  -54.0238 H         1 UNK         0.0773 
     72 H72        35.5097  -44.5772  -52.4674 H         1 UNK         0.0680 
     73 H73        34.8060  -43.1890  -53.2283 H         1 UNK         0.0680 
     74 H74        33.4496  -41.5246  -52.0553 H         1 UNK         0.0650 
     75 H75        32.2830  -41.8352  -50.7945 H         1 UNK         0.0650 
     76 H76        30.2148  -43.2753  -51.3247 H         1 UNK         0.1397 
     77 H77        28.8430  -43.0598  -55.3741 H         1 UNK         0.1363 
     78 H78        32.7658  -41.6535  -54.3563 H         1 UNK         0.1355 
     79 H79        31.2599  -40.8069  -56.4932 H         1 UNK         0.0707 
     80 H80        32.1100  -42.3045  -56.7775 H         1 UNK         0.0707 
     81 H81        31.1213  -44.1968  -58.5888 H         1 UNK         0.1034 
     82 H82        30.5192  -44.5804  -57.0032 H         1 UNK         0.1034 
     83 H83        28.4438  -44.1250  -59.1613 H         1 UNK         0.0482 
     84 H84        27.4838  -46.7664  -59.5785 H         1 UNK         0.3460 
     85 H85        28.6344  -47.5253  -60.6594 H         1 UNK         0.3460 
     86 H86        28.2716  -46.3775  -57.3175 H         1 UNK         0.2989 
     87 H87        26.4581  -45.7000  -55.2206 H         1 UNK         0.0559 
     88 H88        24.6606  -44.0843  -55.6855 H         1 UNK         0.0848 
     89 H89        23.9864  -45.6932  -55.5036 H         1 UNK         0.0848 
     90 H90        24.1666  -44.9884  -57.1100 H         1 UNK         0.0848 
     91 H91        26.0910  -47.7718  -55.9272 H         1 UNK         0.3144 
     92 H92        24.5123  -49.2616  -57.7186 H         1 UNK         0.0727 
     93 H93        26.4927  -49.2244  -60.0653 H         1 UNK         0.0790 
     94 H94        24.7735  -48.8671  -60.1785 H         1 UNK         0.0790 
     95 H95        25.2975  -50.4805  -59.7563 H         1 UNK         0.0790 
     96 H96        27.3690  -49.3566  -57.1460 H         1 UNK         0.3215 
     97 H97        27.1948  -52.8802  -56.2673 H         1 UNK         0.0863 
     98 H98        29.4704  -52.6045  -57.1140 H         1 UNK         0.0808 
     99 H99        29.1362  -50.9623  -57.6589 H         1 UNK         0.0808 
    100 H100       28.3535  -52.3312  -58.4384 H         1 UNK         0.0808 
    101 H101       28.9209  -50.9187  -55.1914 H         1 UNK         0.3118 
    102 H102       27.0695  -50.3095  -52.1757 H         1 UNK         0.0546 
    103 H103       29.2182  -51.1038  -51.2128 H         1 UNK         0.0828 
    104 H104       29.6595  -51.8462  -52.7487 H         1 UNK         0.0828 
    105 H105       28.2897  -52.4604  -51.8332 H         1 UNK         0.0828 
    106 H106       29.5979  -49.3357  -52.9369 H         1 UNK         0.3005 
    107 H107       28.5280  -46.3726  -54.6434 H         1 UNK         0.1257 
    108 H108       30.3443  -45.7004  -52.9626 H         1 UNK         0.0775 
    109 H109       29.8935  -47.0586  -51.9951 H         1 UNK         0.0775 
    110 H110       27.4724  -44.1069  -53.8114 H         1 UNK         0.0840 
    111 H111       27.4733  -43.1316  -52.3696 H         1 UNK         0.0840 
    112 H112       31.0454  -47.7085  -54.2584 H         1 UNK         0.2987 
    113 H113       31.1898  -49.3049  -57.3934 H         1 UNK         0.0785 
    114 H114       31.7805  -46.9865  -58.0197 H         1 UNK         0.0798 
    115 H115       33.2405  -47.8673  -57.6090 H         1 UNK         0.0798 
    116 H116       32.5513  -46.7140  -56.4661 H         1 UNK         0.0798 
    117 H117       33.0691  -48.8755  -55.2379 H         1 UNK         0.3079 
    118 H118       32.0859  -51.7323  -53.3156 H         1 UNK         0.0794 
    119 H119       33.4656  -52.6919  -55.1712 H         1 UNK         0.0786 
    120 H120       34.4289  -52.4203  -53.7292 H         1 UNK         0.0786 
    121 H121       34.5492  -51.3091  -55.0942 H         1 UNK         0.0786 
    122 H122       34.2792  -49.9764  -52.9936 H         1 UNK         0.3032 
    123 H123       32.7721  -47.9846  -50.5715 H         1 UNK         0.1094 
    124 H124       35.2136  -47.8644  -50.4196 H         1 UNK         0.0794 
    125 H125       34.7521  -49.5444  -50.6075 H         1 UNK         0.0794 
    126 H126       35.4230  -48.6549  -51.9737 H         1 UNK         0.0794 
    127 H127       33.1091  -46.0360  -51.6136 H         1 UNK         0.3016 
@<TRIPOS>BOND
     1    1    2 1    
     2    1   67 1    
     3    1   68 1    
     4    1   69 1    
     5    2    3 2    
     6    2    4 am   BACKBONE|DICT|INTERRES
     7    4    5 1    
     8    4   70 1    
     9    5    6 1    
    10    5   65 1    
    11    5   71 1    
    12    6    7 1    
    13    6   72 1    
    14    6   73 1    
    15    7    8 1    
    16    8    9 1    
    17    8   74 1    
    18    8   75 1    
    19    9   10 ar   
    20    9   14 ar   
    21   10   11 ar   
    22   10   76 1    
    23   11   12 ar   
    24   11   48 1    
    25   12   13 ar   
    26   12   77 1    
    27   13   14 ar   
    28   13   15 1    
    29   14   78 1    
    30   15   16 1    
    31   15   79 1    
    32   15   80 1    
    33   16   17 1    
    34   17   18 1    
    35   17   81 1    
    36   17   82 1    
    37   18   19 1    
    38   18   22 1    
    39   18   83 1    
    40   19   20 am   BACKBONE|DICT|INTERRES
    41   19   21 2    
    42   20   84 1    
    43   20   85 1    
    44   22   23 am   BACKBONE|DICT|INTERRES
    45   22   86 1    
    46   23   24 2    
    47   23   25 1    
    48   25   26 1    
    49   25   27 1    
    50   25   87 1    
    51   26   88 1    
    52   26   89 1    
    53   26   90 1    
    54   27   28 am   BACKBONE|DICT|INTERRES
    55   27   91 1    
    56   28   29 2    
    57   28   30 1    
    58   30   31 1    
    59   30   32 1    
    60   30   92 1    
    61   31   93 1    
    62   31   94 1    
    63   31   95 1    
    64   32   33 am   BACKBONE|DICT|INTERRES
    65   32   96 1    
    66   33   34 2    
    67   33   35 1    
    68   35   36 1    
    69   35   37 1    
    70   35   97 1    
    71   36   98 1    
    72   36   99 1    
    73   36  100 1    
    74   37   38 am   BACKBONE|DICT|INTERRES
    75   37  101 1    
    76   38   39 2    
    77   38   40 1    
    78   40   41 1    
    79   40   42 1    
    80   40  102 1    
    81   41  103 1    
    82   41  104 1    
    83   41  105 1    
    84   42   43 am   BACKBONE|DICT|INTERRES
    85   42  106 1    
    86   43   44 2    
    87   43   45 1    
    88   45   46 1    
    89   45   49 1    
    90   45  107 1    
    91   46   47 1    
    92   46  108 1    
    93   46  109 1    
    94   47   48 1    
    95   48  110 1    
    96   48  111 1    
    97   49   50 am   BACKBONE|DICT|INTERRES
    98   49  112 1    
    99   50   51 2    
   100   50   52 1    
   101   52   53 1    
   102   52   54 1    
   103   52  113 1    
   104   53  114 1    
   105   53  115 1    
   106   53  116 1    
   107   54   55 am   BACKBONE|DICT|INTERRES
   108   54  117 1    
   109   55   56 2    
   110   55   57 1    
   111   57   58 1    
   112   57   59 1    
   113   57  118 1    
   114   58  119 1    
   115   58  120 1    
   116   58  121 1    
   117   59   60 am   BACKBONE|DICT|INTERRES
   118   59  122 1    
   119   60   61 2    
   120   60   62 1    
   121   62   63 1    
   122   62   64 1    
   123   62  123 1    
   124   63  124 1    
   125   63  125 1    
   126   63  126 1    
   127   64   65 am   BACKBONE|DICT|INTERRES
   128   64  127 1    
   129   65   66 2    
@<TRIPOS>SUBSTRUCTURE
     1 UNK         1 GROUP             0       ****    0 ROOT    
