@<TRIPOS>MOLECULE
3R134
127   129    1
SMALL
USER_CHARGES


@<TRIPOS>ATOM
      1 CA         30.0300  -44.9716  -52.6834 C.3       0 UNK        -0.1968 
      2 C          31.1897  -45.2578  -51.7480 C.2       0 UNK         0.4852 
      3 O          31.0323  -46.0058  -50.7828 O.2       0 UNK        -0.5359 
      4 N          32.3556  -44.6639  -52.0304 N.am      1 UNK        -0.4300 
      5 CA         33.5770  -44.7975  -51.2244 C.3       1 UNK         0.0863 
      6 C6         34.5184  -43.5742  -51.3718 C.3       11 UNK        -0.0953 
      7 S7         33.6526  -41.9751  -51.1841 S.3       11 UNK        -0.2369 
      8 C8         33.9028  -41.2039  -52.8163 C.3       11 UNK         0.0226 
      9 C9         33.1234  -41.8929  -53.9310 C.ar      11 UNK        -0.0699 
     10 C10        33.7347  -42.8831  -54.7074 C.ar      11 UNK        -0.0804 
     11 C11        33.0541  -43.4907  -55.7658 C.ar      11 UNK        -0.0871 
     12 C12        31.7635  -43.0478  -56.0795 C.ar      11 UNK        -0.1008 
     13 C13        31.1244  -42.0858  -55.2944 C.ar      11 UNK        -0.0735 
     14 C14        31.8074  -41.5123  -54.2167 C.ar      11 UNK        -0.0945 
     15 C15        29.7022  -41.6693  -55.6378 C.3       11 UNK         0.0169 
     16 S16        28.4925  -42.9276  -55.1089 S.3       11 UNK        -0.2669 
     17 C17        27.0986  -42.5729  -56.2359 C.3       11 UNK        -0.0850 
     18 CA         26.8815  -43.6318  -57.3514 C.3       10 UNK         0.0855 
     19 C          28.1169  -43.7876  -58.2838 C.2       10 UNK         0.5543 
     20 N          28.7928  -44.9303  -58.2925 N.am      10 UNK        -0.7343 
     21 O          28.4537  -42.8621  -59.0177 O.2       10 UNK        -0.5027 
     22 N          26.3799  -44.9114  -56.8170 N.am      10 UNK        -0.4495 
     23 C          25.4180  -45.6387  -57.3983 C.2       10 UNK         0.4903 
     24 O          24.7828  -45.2672  -58.3886 O.2       10 UNK        -0.4860 
     25 CA         25.0903  -46.9977  -56.7519 C.3       9 UNK         0.0227 
     26 CB         24.2811  -46.7854  -55.4619 C.3       9 UNK        -0.1964 
     27 N          24.2949  -47.8170  -57.6693 N.am      9 UNK        -0.4231 
     28 C          24.7069  -48.6679  -58.6229 C.2       9 UNK         0.5014 
     29 O          23.9148  -49.0884  -59.4657 O.2       9 UNK        -0.5270 
     30 CA         26.1635  -49.1885  -58.6843 C.3       8 UNK         0.0284 
     31 CB         27.1575  -48.1379  -59.2078 C.3       8 UNK        -0.1977 
     32 N          26.6688  -49.8135  -57.4578 N.am      8 UNK        -0.4342 
     33 C          26.1048  -50.8500  -56.8204 C.2       8 UNK         0.5039 
     34 O          25.0587  -51.3933  -57.1783 O.2       8 UNK        -0.5547 
     35 CA         26.8429  -51.4130  -55.5926 C.3       7 UNK         0.0281 
     36 CB         27.6902  -52.6308  -55.9960 C.3       7 UNK        -0.1963 
     37 N          27.6976  -50.4358  -54.9148 N.am      7 UNK        -0.4444 
     38 C          27.2455  -49.4192  -54.1686 C.2       7 UNK         0.5104 
     39 O          26.0534  -49.2094  -53.9483 O.2       7 UNK        -0.5100 
     40 CA         28.2984  -48.4708  -53.5722 C.3       6 UNK         0.0396 
     41 CB         28.8079  -48.9994  -52.2227 C.3       6 UNK        -0.1801 
     42 N          29.4354  -48.2531  -54.4679 N.am      6 UNK        -0.4747 
     43 C          29.3832  -47.5475  -55.6054 C.2       6 UNK         0.5012 
     44 O          28.3860  -46.9406  -55.9933 O.2       6 UNK        -0.5003 
     45 CA         30.6541  -47.5073  -56.4700 C.3       5 UNK         0.0782 
     46 C46        31.5626  -46.3365  -56.0378 C.3       11 UNK        -0.0868 
     47 S47        32.6595  -45.8023  -57.3900 S.3       11 UNK        -0.2515 
     48 C48        33.7562  -44.6056  -56.5464 C.3       11 UNK         0.0199 
     49 N          31.3581  -48.7897  -56.4651 N.am      5 UNK        -0.4607 
     50 C          30.9034  -49.9036  -57.0529 C.2       4 UNK         0.5031 
     51 O          29.8570  -49.9593  -57.6986 O.2       4 UNK        -0.5119 
     52 CA         31.7417  -51.1773  -56.8518 C.3       4 UNK         0.0263 
     53 CB         32.8738  -51.2477  -57.8887 C.3       4 UNK        -0.1967 
     54 N          32.3037  -51.2772  -55.5011 N.am      4 UNK        -0.4237 
     55 C          31.5683  -51.4287  -54.3902 C.2       3 UNK         0.4908 
     56 O          30.3428  -51.5359  -54.3910 O.2       3 UNK        -0.5102 
     57 CA         32.3192  -51.4078  -53.0481 C.3       3 UNK         0.0241 
     58 CB         32.9054  -52.7937  -52.7341 C.3       3 UNK        -0.1971 
     59 N          33.3766  -50.3918  -52.9687 N.am      3 UNK        -0.4139 
     60 C          33.1813  -49.0750  -53.1214 C.2       2 UNK         0.5016 
     61 O          32.0976  -48.5723  -53.4305 O.2       2 UNK        -0.5319 
     62 CA         34.4023  -48.1665  -52.9392 C.3       2 UNK         0.0286 
     63 CB         35.1883  -48.0517  -54.2562 C.3       2 UNK        -0.1963 
     64 N          33.9207  -46.8428  -52.5575 N.am      2 UNK        -0.4790 
     65 C          34.3351  -46.1142  -51.5139 C.2       1 UNK         0.5024 
     66 O          35.2771  -46.4400  -50.7901 O.2       1 UNK        -0.4888 
     67 H67        29.3304  -44.2777  -52.2185 H         1 UNK         0.0892 
     68 H68        29.4961  -45.8894  -52.9173 H         1 UNK         0.0892 
     69 H69        30.3761  -44.5347  -53.6184 H         1 UNK         0.0892 
     70 H70        32.4191  -44.0253  -52.8122 H         1 UNK         0.3107 
     71 H71        33.2773  -44.8431  -50.1750 H         1 UNK         0.0773 
     72 H72        35.2963  -43.6140  -50.6070 H         1 UNK         0.0680 
     73 H73        35.0483  -43.5999  -52.3230 H         1 UNK         0.0680 
     74 H74        34.9687  -41.1900  -53.0492 H         1 UNK         0.0650 
     75 H75        33.5977  -40.1583  -52.7540 H         1 UNK         0.0650 
     76 H76        34.7527  -43.1787  -54.4957 H         1 UNK         0.1397 
     77 H77        31.2295  -43.4725  -56.9185 H         1 UNK         0.1363 
     78 H78        31.3246  -40.7544  -53.6148 H         1 UNK         0.1355 
     79 H79        29.4533  -40.7135  -55.1744 H         1 UNK         0.0707 
     80 H80        29.6332  -41.5171  -56.7161 H         1 UNK         0.0707 
     81 H81        27.2322  -41.5860  -56.6826 H         1 UNK         0.1034 
     82 H82        26.1925  -42.4900  -55.6340 H         1 UNK         0.1034 
     83 H83        26.1059  -43.2103  -57.9936 H         1 UNK         0.0482 
     84 H84        29.5857  -45.0300  -58.9052 H         1 UNK         0.3460 
     85 H85        28.5353  -45.6667  -57.6503 H         1 UNK         0.3460 
     86 H86        26.9082  -45.3124  -56.0511 H         1 UNK         0.2989 
     87 H87        26.0118  -47.5100  -56.4922 H         1 UNK         0.0559 
     88 H88        23.9916  -47.7370  -55.0157 H         1 UNK         0.0848 
     89 H89        23.3723  -46.2089  -55.6401 H         1 UNK         0.0848 
     90 H90        24.8684  -46.2491  -54.7154 H         1 UNK         0.0848 
     91 H91        23.3251  -47.5425  -57.7171 H         1 UNK         0.3144 
     92 H92        26.1537  -49.9871  -59.4292 H         1 UNK         0.0727 
     93 H93        28.0808  -48.6090  -59.5460 H         1 UNK         0.0790 
     94 H94        27.4262  -47.4106  -58.4462 H         1 UNK         0.0790 
     95 H95        26.7449  -47.5895  -60.0558 H         1 UNK         0.0790 
     96 H96        27.5581  -49.4787  -57.1120 H         1 UNK         0.3215 
     97 H97        26.0837  -51.7480  -54.8824 H         1 UNK         0.0863 
     98 H98        28.1464  -53.1025  -55.1255 H         1 UNK         0.0808 
     99 H99        28.4895  -52.3538  -56.6845 H         1 UNK         0.0808 
    100 H100       27.0794  -53.3874  -56.4906 H         1 UNK         0.0808 
    101 H101       28.7005  -50.5945  -54.9593 H         1 UNK         0.3118 
    102 H102       27.8114  -47.5090  -53.3991 H         1 UNK         0.0546 
    103 H103       29.3010  -49.9660  -52.3281 H         1 UNK         0.0828 
    104 H104       27.9854  -49.1266  -51.5179 H         1 UNK         0.0828 
    105 H105       29.5209  -48.3099  -51.7699 H         1 UNK         0.0828 
    106 H106       30.3308  -48.6419  -54.1808 H         1 UNK         0.3005 
    107 H107       30.3160  -47.3243  -57.4927 H         1 UNK         0.1257 
    108 H108       30.9516  -45.4825  -55.7487 H         1 UNK         0.0775 
    109 H109       32.1581  -46.5926  -55.1614 H         1 UNK         0.0775 
    110 H110       34.4064  -45.1683  -55.8745 H         1 UNK         0.0840 
    111 H111       34.4074  -44.1489  -57.2927 H         1 UNK         0.0840 
    112 H112       32.2000  -48.8375  -55.9117 H         1 UNK         0.2987 
    113 H113       31.0823  -52.0342  -57.0063 H         1 UNK         0.0785 
    114 H114       33.5823  -50.4263  -57.7734 H         1 UNK         0.0798 
    115 H115       32.4757  -51.1942  -58.9031 H         1 UNK         0.0798 
    116 H116       33.4273  -52.1836  -57.8092 H         1 UNK         0.0798 
    117 H117       33.3061  -51.1997  -55.4101 H         1 UNK         0.3079 
    118 H118       31.5861  -51.1691  -52.2748 H         1 UNK         0.0794 
    119 H119       33.6818  -53.0774  -53.4457 H         1 UNK         0.0786 
    120 H120       32.1316  -53.5620  -52.7724 H         1 UNK         0.0786 
    121 H121       33.3384  -52.8243  -51.7341 H         1 UNK         0.0786 
    122 H122       34.3016  -50.7226  -52.7331 H         1 UNK         0.3032 
    123 H123       35.0418  -48.5844  -52.1583 H         1 UNK         0.1094 
    124 H124       36.0402  -47.3800  -54.1487 H         1 UNK         0.0794 
    125 H125       35.5793  -49.0212  -54.5673 H         1 UNK         0.0794 
    126 H126       34.5669  -47.6730  -55.0688 H         1 UNK         0.0794 
    127 H127       33.0686  -46.5600  -53.0220 H         1 UNK         0.3016 
@<TRIPOS>BOND
     1    1    2 1    
     2    1   67 1    
     3    1   68 1    
     4    1   69 1    
     5    2    3 2    
     6    2    4 am   BACKBONE|DICT|INTERRES
     7    4    5 1    
     8    4   70 1    
     9    5    6 1    
    10    5   65 1    
    11    5   71 1    
    12    6    7 1    
    13    6   72 1    
    14    6   73 1    
    15    7    8 1    
    16    8    9 1    
    17    8   74 1    
    18    8   75 1    
    19    9   10 ar   
    20    9   14 ar   
    21   10   11 ar   
    22   10   76 1    
    23   11   12 ar   
    24   11   48 1    
    25   12   13 ar   
    26   12   77 1    
    27   13   14 ar   
    28   13   15 1    
    29   14   78 1    
    30   15   16 1    
    31   15   79 1    
    32   15   80 1    
    33   16   17 1    
    34   17   18 1    
    35   17   81 1    
    36   17   82 1    
    37   18   19 1    
    38   18   22 1    
    39   18   83 1    
    40   19   20 am   BACKBONE|DICT|INTERRES
    41   19   21 2    
    42   20   84 1    
    43   20   85 1    
    44   22   23 am   BACKBONE|DICT|INTERRES
    45   22   86 1    
    46   23   24 2    
    47   23   25 1    
    48   25   26 1    
    49   25   27 1    
    50   25   87 1    
    51   26   88 1    
    52   26   89 1    
    53   26   90 1    
    54   27   28 am   BACKBONE|DICT|INTERRES
    55   27   91 1    
    56   28   29 2    
    57   28   30 1    
    58   30   31 1    
    59   30   32 1    
    60   30   92 1    
    61   31   93 1    
    62   31   94 1    
    63   31   95 1    
    64   32   33 am   BACKBONE|DICT|INTERRES
    65   32   96 1    
    66   33   34 2    
    67   33   35 1    
    68   35   36 1    
    69   35   37 1    
    70   35   97 1    
    71   36   98 1    
    72   36   99 1    
    73   36  100 1    
    74   37   38 am   BACKBONE|DICT|INTERRES
    75   37  101 1    
    76   38   39 2    
    77   38   40 1    
    78   40   41 1    
    79   40   42 1    
    80   40  102 1    
    81   41  103 1    
    82   41  104 1    
    83   41  105 1    
    84   42   43 am   BACKBONE|DICT|INTERRES
    85   42  106 1    
    86   43   44 2    
    87   43   45 1    
    88   45   46 1    
    89   45   49 1    
    90   45  107 1    
    91   46   47 1    
    92   46  108 1    
    93   46  109 1    
    94   47   48 1    
    95   48  110 1    
    96   48  111 1    
    97   49   50 am   BACKBONE|DICT|INTERRES
    98   49  112 1    
    99   50   51 2    
   100   50   52 1    
   101   52   53 1    
   102   52   54 1    
   103   52  113 1    
   104   53  114 1    
   105   53  115 1    
   106   53  116 1    
   107   54   55 am   BACKBONE|DICT|INTERRES
   108   54  117 1    
   109   55   56 2    
   110   55   57 1    
   111   57   58 1    
   112   57   59 1    
   113   57  118 1    
   114   58  119 1    
   115   58  120 1    
   116   58  121 1    
   117   59   60 am   BACKBONE|DICT|INTERRES
   118   59  122 1    
   119   60   61 2    
   120   60   62 1    
   121   62   63 1    
   122   62   64 1    
   123   62  123 1    
   124   63  124 1    
   125   63  125 1    
   126   63  126 1    
   127   64   65 am   BACKBONE|DICT|INTERRES
   128   64  127 1    
   129   65   66 2    
@<TRIPOS>SUBSTRUCTURE
     1 UNK         1 GROUP             0       ****    0 ROOT    
