@<TRIPOS>MOLECULE
3R134
127   129    1
SMALL
USER_CHARGES


@<TRIPOS>ATOM
      1 CA         37.6506  -48.7394  -51.4646 C.3       0 UNK        -0.1968 
      2 C          36.6438  -48.0504  -52.3731 C.2       0 UNK         0.4852 
      3 O          35.8769  -48.7287  -53.0562 O.2       0 UNK        -0.5359 
      4 N          36.6294  -46.7088  -52.3734 N.am      1 UNK        -0.4300 
      5 CA         35.7585  -45.8494  -53.1925 C.3       1 UNK         0.0863 
      6 C6         36.0711  -44.3522  -52.9399 C.3       11 UNK        -0.0953 
      7 S7         35.8029  -43.3077  -54.4081 S.3       11 UNK        -0.2369 
      8 C8         34.5150  -42.1500  -53.8400 C.3       11 UNK         0.0226 
      9 C9         33.1129  -42.6049  -54.2212 C.ar      11 UNK        -0.0699 
     10 C10        32.1676  -42.9272  -53.2403 C.ar      11 UNK        -0.0804 
     11 C11        30.8555  -43.2613  -53.5995 C.ar      11 UNK        -0.0871 
     12 C12        30.5092  -43.2987  -54.9538 C.ar      11 UNK        -0.1008 
     13 C13        31.4458  -42.9887  -55.9450 C.ar      11 UNK        -0.0735 
     14 C14        32.7445  -42.6400  -55.5691 C.ar      11 UNK        -0.0945 
     15 C15        31.0718  -43.0469  -57.4213 C.3       11 UNK         0.0169 
     16 S16        29.5545  -42.1118  -57.8038 S.3       11 UNK        -0.2669 
     17 C17        28.6592  -43.3365  -58.8191 C.3       11 UNK        -0.0850 
     18 CA         27.9186  -44.4044  -57.9569 C.3       10 UNK         0.0855 
     19 C          26.5248  -43.9656  -57.4155 C.2       10 UNK         0.5543 
     20 N          26.3352  -42.6892  -57.1140 N.am      10 UNK        -0.7343 
     21 O          25.6304  -44.7833  -57.2078 O.2       10 UNK        -0.5027 
     22 N          27.8858  -45.7279  -58.5903 N.am      10 UNK        -0.4495 
     23 C          27.3529  -46.0322  -59.7808 C.2       10 UNK         0.4903 
     24 O          26.9441  -45.2060  -60.5965 O.2       10 UNK        -0.4860 
     25 CA         27.2275  -47.5319  -60.0855 C.3       9 UNK         0.0227 
     26 CB         28.5960  -48.1476  -60.4240 C.3       9 UNK        -0.1964 
     27 N          26.6429  -48.2225  -58.9354 N.am      9 UNK        -0.4231 
     28 C          25.3293  -48.2762  -58.6730 C.2       9 UNK         0.5014 
     29 O          24.4631  -47.8856  -59.4586 O.2       9 UNK        -0.5270 
     30 CA         24.9106  -48.8262  -57.2941 C.3       8 UNK         0.0284 
     31 CB         23.5068  -49.4690  -57.3021 C.3       8 UNK        -0.1977 
     32 N          25.9012  -49.7216  -56.6842 N.am      8 UNK        -0.4342 
     33 C          26.3088  -50.9210  -57.1278 C.2       8 UNK         0.5039 
     34 O          25.8580  -51.4658  -58.1363 O.2       8 UNK        -0.5547 
     35 CA         27.4286  -51.6326  -56.3418 C.3       7 UNK         0.0281 
     36 CB         28.6832  -51.7755  -57.2209 C.3       7 UNK        -0.1963 
     37 N          27.7998  -50.9573  -55.0939 N.am      7 UNK        -0.4444 
     38 C          27.0834  -50.9802  -53.9611 C.2       7 UNK         0.5104 
     39 O          26.0574  -51.6444  -53.8143 O.2       7 UNK        -0.5100 
     40 CA         27.5621  -50.0641  -52.8180 C.3       6 UNK         0.0396 
     41 CB         28.6213  -50.7758  -51.9648 C.3       6 UNK        -0.1801 
     42 N          28.0744  -48.7688  -53.2900 N.am      6 UNK        -0.4747 
     43 C          27.3259  -47.8624  -53.9412 C.2       6 UNK         0.5012 
     44 O          26.1257  -48.0192  -54.1642 O.2       6 UNK        -0.5003 
     45 CA         28.0175  -46.6102  -54.5141 C.3       5 UNK         0.0782 
     46 C46        27.9320  -45.3848  -53.5652 C.3       11 UNK        -0.0868 
     47 S47        29.2946  -45.2406  -52.3591 S.3       11 UNK        -0.2515 
     48 C48        29.7979  -43.4955  -52.5238 C.3       11 UNK         0.0199 
     49 N          29.3683  -46.9095  -55.0013 N.am      5 UNK        -0.4607 
     50 C          29.6108  -47.5811  -56.1343 C.2       4 UNK         0.5031 
     51 O          28.7258  -47.9232  -56.9208 O.2       4 UNK        -0.5119 
     52 CA         31.0703  -47.9452  -56.4425 C.3       4 UNK         0.0263 
     53 CB         31.8251  -46.7439  -57.0260 C.3       4 UNK        -0.1967 
     54 N          31.7866  -48.4615  -55.2755 N.am      4 UNK        -0.4237 
     55 C          31.5255  -49.6479  -54.7048 C.2       3 UNK         0.4908 
     56 O          30.6388  -50.4075  -55.0901 O.2       3 UNK        -0.5102 
     57 CA         32.3710  -50.0561  -53.4858 C.3       3 UNK         0.0241 
     58 CB         33.5982  -50.8633  -53.9346 C.3       3 UNK        -0.1971 
     59 N          32.7931  -48.9175  -52.6684 N.am      3 UNK        -0.4139 
     60 C          31.9424  -48.0864  -52.0454 C.2       2 UNK         0.5016 
     61 O          30.7226  -48.2521  -52.0428 O.2       2 UNK        -0.5319 
     62 CA         32.5267  -46.8505  -51.3348 C.3       2 UNK         0.0286 
     63 CB         32.5080  -47.0482  -49.8111 C.3       2 UNK        -0.1963 
     64 N          33.8795  -46.4775  -51.7536 N.am      2 UNK        -0.4790 
     65 C          34.2557  -46.1469  -52.9990 C.2       1 UNK         0.5024 
     66 O          33.4933  -46.1388  -53.9667 O.2       1 UNK        -0.4888 
     67 H67        37.1328  -49.3675  -50.7403 H         1 UNK         0.0892 
     68 H68        38.3126  -49.3736  -52.0536 H         1 UNK         0.0892 
     69 H69        38.2645  -48.0246  -50.9171 H         1 UNK         0.0892 
     70 H70        37.2866  -46.2195  -51.7824 H         1 UNK         0.3107 
     71 H71        35.9986  -46.0891  -54.2307 H         1 UNK         0.0773 
     72 H72        37.1252  -44.2275  -52.6868 H         1 UNK         0.0680 
     73 H73        35.5226  -43.9666  -52.0784 H         1 UNK         0.0680 
     74 H74        34.7000  -41.1813  -54.3063 H         1 UNK         0.0650 
     75 H75        34.5994  -41.9819  -52.7656 H         1 UNK         0.0650 
     76 H76        32.4443  -42.8823  -52.1960 H         1 UNK         0.1397 
     77 H77        29.5008  -43.5426  -55.2447 H         1 UNK         0.1363 
     78 H78        33.4757  -42.3897  -56.3256 H         1 UNK         0.1355 
     79 H79        30.9460  -44.0918  -57.6982 H         1 UNK         0.0707 
     80 H80        31.8796  -42.6613  -58.0452 H         1 UNK         0.0707 
     81 H81        27.9635  -42.8189  -59.4824 H         1 UNK         0.1034 
     82 H82        29.3829  -43.8127  -59.4828 H         1 UNK         0.1034 
     83 H83        28.5125  -44.5824  -57.0613 H         1 UNK         0.0482 
     84 H84        27.0773  -42.0182  -57.2484 H         1 UNK         0.3460 
     85 H85        25.4455  -42.3943  -56.7437 H         1 UNK         0.3460 
     86 H86        28.1619  -46.5013  -57.9928 H         1 UNK         0.2989 
     87 H87        26.5764  -47.6553  -60.9536 H         1 UNK         0.0559 
     88 H88        29.3036  -48.0602  -59.5988 H         1 UNK         0.0848 
     89 H89        29.0412  -47.6523  -61.2879 H         1 UNK         0.0848 
     90 H90        28.5019  -49.2053  -60.6704 H         1 UNK         0.0848 
     91 H91        27.2875  -48.5138  -58.2076 H         1 UNK         0.3144 
     92 H92        24.8616  -47.9543  -56.6401 H         1 UNK         0.0727 
     93 H93        22.7467  -48.7456  -57.5995 H         1 UNK         0.0790 
     94 H94        23.2331  -49.8348  -56.3124 H         1 UNK         0.0790 
     95 H95        23.4474  -50.3056  -57.9987 H         1 UNK         0.0790 
     96 H96        26.3194  -49.3707  -55.8308 H         1 UNK         0.3215 
     97 H97        27.0657  -52.6334  -56.0983 H         1 UNK         0.0863 
     98 H98        29.4625  -52.3414  -56.7103 H         1 UNK         0.0808 
     99 H99        29.0976  -50.8029  -57.4904 H         1 UNK         0.0808 
    100 H100       28.4581  -52.3033  -58.1486 H         1 UNK         0.0808 
    101 H101       28.6866  -50.4593  -55.0985 H         1 UNK         0.3118 
    102 H102       26.7015  -49.8594  -52.1778 H         1 UNK         0.0546 
    103 H103       28.2269  -51.7039  -51.5491 H         1 UNK         0.0828 
    104 H104       28.9419  -50.1560  -51.1273 H         1 UNK         0.0828 
    105 H105       29.5017  -51.0324  -52.5518 H         1 UNK         0.0828 
    106 H106       29.0466  -48.5547  -53.0809 H         1 UNK         0.3005 
    107 H107       27.4160  -46.3451  -55.3875 H         1 UNK         0.1257 
    108 H108       26.9906  -45.3853  -53.0118 H         1 UNK         0.0775 
    109 H109       27.8864  -44.4771  -54.1640 H         1 UNK         0.0775 
    110 H110       28.9243  -42.8733  -52.7235 H         1 UNK         0.0840 
    111 H111       30.1760  -43.1652  -51.5552 H         1 UNK         0.0840 
    112 H112       30.1319  -46.6624  -54.3867 H         1 UNK         0.2987 
    113 H113       31.0563  -48.7321  -57.2001 H         1 UNK         0.0785 
    114 H114       32.8440  -47.0134  -57.3041 H         1 UNK         0.0798 
    115 H115       31.8828  -45.9189  -56.3145 H         1 UNK         0.0798 
    116 H116       31.3314  -46.3786  -57.9271 H         1 UNK         0.0798 
    117 H117       32.4999  -47.8647  -54.8712 H         1 UNK         0.3079 
    118 H118       31.7586  -50.7015  -52.8549 H         1 UNK         0.0794 
    119 H119       33.2975  -51.7538  -54.4883 H         1 UNK         0.0786 
    120 H120       34.1901  -51.1957  -53.0815 H         1 UNK         0.0786 
    121 H121       34.2489  -50.2787  -54.5863 H         1 UNK         0.0786 
    122 H122       33.7870  -48.7137  -52.6492 H         1 UNK         0.3032 
    123 H123       31.8805  -46.0074  -51.5783 H         1 UNK         0.1094 
    124 H124       32.8188  -46.1436  -49.2883 H         1 UNK         0.0794 
    125 H125       31.5026  -47.2904  -49.4629 H         1 UNK         0.0794 
    126 H126       33.1653  -47.8616  -49.5015 H         1 UNK         0.0794 
    127 H127       34.5897  -46.4851  -51.0358 H         1 UNK         0.3016 
@<TRIPOS>BOND
     1    1    2 1    
     2    1   67 1    
     3    1   68 1    
     4    1   69 1    
     5    2    3 2    
     6    2    4 am   BACKBONE|DICT|INTERRES
     7    4    5 1    
     8    4   70 1    
     9    5    6 1    
    10    5   65 1    
    11    5   71 1    
    12    6    7 1    
    13    6   72 1    
    14    6   73 1    
    15    7    8 1    
    16    8    9 1    
    17    8   74 1    
    18    8   75 1    
    19    9   10 ar   
    20    9   14 ar   
    21   10   11 ar   
    22   10   76 1    
    23   11   12 ar   
    24   11   48 1    
    25   12   13 ar   
    26   12   77 1    
    27   13   14 ar   
    28   13   15 1    
    29   14   78 1    
    30   15   16 1    
    31   15   79 1    
    32   15   80 1    
    33   16   17 1    
    34   17   18 1    
    35   17   81 1    
    36   17   82 1    
    37   18   19 1    
    38   18   22 1    
    39   18   83 1    
    40   19   20 am   BACKBONE|DICT|INTERRES
    41   19   21 2    
    42   20   84 1    
    43   20   85 1    
    44   22   23 am   BACKBONE|DICT|INTERRES
    45   22   86 1    
    46   23   24 2    
    47   23   25 1    
    48   25   26 1    
    49   25   27 1    
    50   25   87 1    
    51   26   88 1    
    52   26   89 1    
    53   26   90 1    
    54   27   28 am   BACKBONE|DICT|INTERRES
    55   27   91 1    
    56   28   29 2    
    57   28   30 1    
    58   30   31 1    
    59   30   32 1    
    60   30   92 1    
    61   31   93 1    
    62   31   94 1    
    63   31   95 1    
    64   32   33 am   BACKBONE|DICT|INTERRES
    65   32   96 1    
    66   33   34 2    
    67   33   35 1    
    68   35   36 1    
    69   35   37 1    
    70   35   97 1    
    71   36   98 1    
    72   36   99 1    
    73   36  100 1    
    74   37   38 am   BACKBONE|DICT|INTERRES
    75   37  101 1    
    76   38   39 2    
    77   38   40 1    
    78   40   41 1    
    79   40   42 1    
    80   40  102 1    
    81   41  103 1    
    82   41  104 1    
    83   41  105 1    
    84   42   43 am   BACKBONE|DICT|INTERRES
    85   42  106 1    
    86   43   44 2    
    87   43   45 1    
    88   45   46 1    
    89   45   49 1    
    90   45  107 1    
    91   46   47 1    
    92   46  108 1    
    93   46  109 1    
    94   47   48 1    
    95   48  110 1    
    96   48  111 1    
    97   49   50 am   BACKBONE|DICT|INTERRES
    98   49  112 1    
    99   50   51 2    
   100   50   52 1    
   101   52   53 1    
   102   52   54 1    
   103   52  113 1    
   104   53  114 1    
   105   53  115 1    
   106   53  116 1    
   107   54   55 am   BACKBONE|DICT|INTERRES
   108   54  117 1    
   109   55   56 2    
   110   55   57 1    
   111   57   58 1    
   112   57   59 1    
   113   57  118 1    
   114   58  119 1    
   115   58  120 1    
   116   58  121 1    
   117   59   60 am   BACKBONE|DICT|INTERRES
   118   59  122 1    
   119   60   61 2    
   120   60   62 1    
   121   62   63 1    
   122   62   64 1    
   123   62  123 1    
   124   63  124 1    
   125   63  125 1    
   126   63  126 1    
   127   64   65 am   BACKBONE|DICT|INTERRES
   128   64  127 1    
   129   65   66 2    
@<TRIPOS>SUBSTRUCTURE
     1 UNK         1 GROUP             0       ****    0 ROOT    
