@<TRIPOS>MOLECULE
3R134
127   129    1
SMALL
USER_CHARGES


@<TRIPOS>ATOM
      1 CA         35.9790  -44.8434  -48.3539 C.3       0 UNK        -0.1968 
      2 C          35.4264  -45.2958  -49.6974 C.2       0 UNK         0.4852 
      3 O          35.3598  -46.4978  -49.9576 O.2       0 UNK        -0.5359 
      4 N          35.0197  -44.3436  -50.5496 N.am      1 UNK        -0.4300 
      5 CA         34.4693  -44.5953  -51.8896 C.3       1 UNK         0.0863 
      6 C6         34.5947  -43.3410  -52.8040 C.3       11 UNK        -0.0953 
      7 S7         35.1864  -43.7401  -54.4875 S.3       11 UNK        -0.2369 
      8 C8         34.0546  -42.7963  -55.5616 C.3       11 UNK         0.0226 
      9 C9         32.9009  -43.6464  -56.0775 C.ar      11 UNK        -0.0699 
     10 C10        32.9183  -44.1547  -57.3823 C.ar      11 UNK        -0.0804 
     11 C11        31.8413  -44.9063  -57.8668 C.ar      11 UNK        -0.0871 
     12 C12        30.7528  -45.1597  -57.0304 C.ar      11 UNK        -0.1008 
     13 C13        30.7473  -44.7042  -55.7107 C.ar      11 UNK        -0.0735 
     14 C14        31.8058  -43.9159  -55.2536 C.ar      11 UNK        -0.0945 
     15 C15        29.5980  -45.0696  -54.7855 C.3       11 UNK         0.0169 
     16 S16        29.3451  -46.8744  -54.7212 S.3       11 UNK        -0.2669 
     17 C17        27.6800  -46.9675  -53.9818 C.3       11 UNK        -0.0850 
     18 CA         26.5866  -47.2735  -55.0452 C.3       10 UNK         0.0855 
     19 C          25.2236  -47.7133  -54.4273 C.2       10 UNK         0.5543 
     20 N          24.0867  -47.4231  -55.0512 N.am      10 UNK        -0.7343 
     21 O          25.1926  -48.3646  -53.3866 O.2       10 UNK        -0.5027 
     22 N          26.4792  -46.2384  -56.0873 N.am      10 UNK        -0.4495 
     23 C          26.0409  -44.9816  -55.9201 C.2       10 UNK         0.4903 
     24 O          25.7709  -44.4832  -54.8274 O.2       10 UNK        -0.4860 
     25 CA         25.8470  -44.1348  -57.1936 C.3       9 UNK         0.0227 
     26 CB         27.0870  -43.2611  -57.4454 C.3       9 UNK        -0.1964 
     27 N          25.5658  -44.9309  -58.3933 N.am      9 UNK        -0.4231 
     28 C          24.5250  -45.7616  -58.5514 C.2       9 UNK         0.5014 
     29 O          23.6182  -45.8931  -57.7271 O.2       9 UNK        -0.5270 
     30 CA         24.5325  -46.6625  -59.8005 C.3       8 UNK         0.0284 
     31 CB         25.3741  -46.1077  -60.9733 C.3       8 UNK        -0.1977 
     32 N          24.9510  -48.0285  -59.4560 N.am      8 UNK        -0.4342 
     33 C          26.1043  -48.3907  -58.8759 C.2       8 UNK         0.5039 
     34 O          27.0160  -47.6052  -58.5900 O.2       8 UNK        -0.5547 
     35 CA         26.2690  -49.8769  -58.5418 C.3       7 UNK         0.0281 
     36 CB         26.5913  -50.7025  -59.8002 C.3       7 UNK        -0.1963 
     37 N          27.3655  -49.9801  -57.5893 N.am      7 UNK        -0.4444 
     38 C          27.5726  -50.9483  -56.6936 C.2       7 UNK         0.5104 
     39 O          26.8415  -51.9324  -56.5721 O.2       7 UNK        -0.5100 
     40 CA         28.7945  -50.7675  -55.7659 C.3       6 UNK         0.0396 
     41 CB         29.3407  -52.1077  -55.2326 C.3       6 UNK        -0.1801 
     42 N          29.8793  -49.9655  -56.3525 N.am      6 UNK        -0.4747 
     43 C          30.5749  -50.2273  -57.4737 C.2       6 UNK         0.5012 
     44 O          30.3666  -51.1962  -58.2044 O.2       6 UNK        -0.5003 
     45 CA         31.7046  -49.2438  -57.8364 C.3       5 UNK         0.0782 
     46 C46        31.2172  -48.1808  -58.8503 C.3       11 UNK        -0.0868 
     47 S47        32.5745  -47.0952  -59.4176 S.3       11 UNK        -0.2515 
     48 C48        31.8413  -45.4316  -59.2950 C.3       11 UNK         0.0199 
     49 N          32.3027  -48.6587  -56.6305 N.am      5 UNK        -0.4607 
     50 C          33.2018  -49.3038  -55.8757 C.2       4 UNK         0.5031 
     51 O          33.6409  -50.4244  -56.1375 O.2       4 UNK        -0.5119 
     52 CA         33.6959  -48.5746  -54.6200 C.3       4 UNK         0.0263 
     53 CB         34.3478  -47.2308  -54.9831 C.3       4 UNK        -0.1967 
     54 N          32.6338  -48.3769  -53.6282 N.am      4 UNK        -0.4237 
     55 C          32.0377  -49.3668  -52.9422 C.2       3 UNK         0.4908 
     56 O          32.3266  -50.5559  -53.0820 O.2       3 UNK        -0.5102 
     57 CA         30.9664  -48.9733  -51.9080 C.3       3 UNK         0.0241 
     58 CB         30.7442  -50.0480  -50.8252 C.3       3 UNK        -0.1971 
     59 N          31.2915  -47.6946  -51.2770 N.am      3 UNK        -0.4139 
     60 C          30.4000  -46.7540  -50.9451 C.2       2 UNK         0.5016 
     61 O          29.1815  -46.9227  -51.0033 O.2       2 UNK        -0.5319 
     62 CA         30.9300  -45.3848  -50.4650 C.3       2 UNK         0.0286 
     63 CB         30.6283  -45.1926  -48.9688 C.3       2 UNK        -0.1963 
     64 N          32.3535  -45.0879  -50.6929 N.am      2 UNK        -0.4790 
     65 C          33.0207  -45.1374  -51.8568 C.2       1 UNK         0.5024 
     66 O          32.5335  -45.5988  -52.8841 O.2       1 UNK        -0.4888 
     67 H67        37.0042  -45.1925  -48.2341 H         1 UNK         0.0892 
     68 H68        35.9774  -43.7580  -48.2555 H         1 UNK         0.0892 
     69 H69        35.3810  -45.2584  -47.5430 H         1 UNK         0.0892 
     70 H70        35.0945  -43.3726  -50.2795 H         1 UNK         0.3107 
     71 H71        35.0785  -45.3926  -52.3184 H         1 UNK         0.0773 
     72 H72        35.3266  -42.6425  -52.3951 H         1 UNK         0.0680 
     73 H73        33.6612  -42.7771  -52.8491 H         1 UNK         0.0680 
     74 H74        33.6711  -41.9219  -55.0344 H         1 UNK         0.0650 
     75 H75        34.6307  -42.4068  -56.4021 H         1 UNK         0.0650 
     76 H76        33.7649  -43.9561  -58.0252 H         1 UNK         0.1397 
     77 H77        29.9092  -45.7296  -57.3925 H         1 UNK         0.1363 
     78 H78        31.7928  -43.5347  -54.2429 H         1 UNK         0.1355 
     79 H79        28.6982  -44.5709  -55.1392 H         1 UNK         0.0707 
     80 H80        29.7810  -44.7081  -53.7724 H         1 UNK         0.0707 
     81 H81        27.4542  -46.0518  -53.4336 H         1 UNK         0.1034 
     82 H82        27.7155  -47.7577  -53.2300 H         1 UNK         0.1034 
     83 H83        26.9173  -48.1625  -55.5782 H         1 UNK         0.0482 
     84 H84        23.2151  -47.7253  -54.6463 H         1 UNK         0.3460 
     85 H85        24.0822  -46.8862  -55.9099 H         1 UNK         0.3460 
     86 H86        26.6833  -46.5569  -57.0313 H         1 UNK         0.2989 
     87 H87        24.9906  -43.4789  -57.0249 H         1 UNK         0.0559 
     88 H88        27.3111  -42.6413  -56.5759 H         1 UNK         0.0848 
     89 H89        26.9358  -42.5881  -58.2894 H         1 UNK         0.0848 
     90 H90        27.9724  -43.8646  -57.6499 H         1 UNK         0.0848 
     91 H91        26.2820  -44.9450  -59.1052 H         1 UNK         0.3144 
     92 H92        23.4972  -46.7249  -60.1396 H         1 UNK         0.0727 
     93 H93        26.4422  -46.0888  -60.7542 H         1 UNK         0.0790 
     94 H94        25.0692  -45.0922  -61.2302 H         1 UNK         0.0790 
     95 H95        25.2385  -46.7159  -61.8677 H         1 UNK         0.0790 
     96 H96        24.2571  -48.7450  -59.6215 H         1 UNK         0.3215 
     97 H97        25.3487  -50.2384  -58.0778 H         1 UNK         0.0863 
     98 H98        26.7235  -51.7574  -59.5589 H         1 UNK         0.0808 
     99 H99        27.5053  -50.3551  -60.2840 H         1 UNK         0.0808 
    100 H100       25.7866  -50.6376  -60.5334 H         1 UNK         0.0808 
    101 H101       27.9793  -49.1740  -57.6002 H         1 UNK         0.3118 
    102 H102       28.4346  -50.1986  -54.9074 H         1 UNK         0.0546 
    103 H103       29.6678  -52.7611  -56.0419 H         1 UNK         0.0828 
    104 H104       28.5788  -52.6460  -54.6678 H         1 UNK         0.0828 
    105 H105       30.1876  -51.9523  -54.5639 H         1 UNK         0.0828 
    106 H106       30.1266  -49.1299  -55.8389 H         1 UNK         0.3005 
    107 H107       32.4719  -49.8358  -58.3418 H         1 UNK         0.1257 
    108 H108       30.8019  -48.6675  -59.7351 H         1 UNK         0.0775 
    109 H109       30.4031  -47.5926  -58.4302 H         1 UNK         0.0775 
    110 H110       32.4093  -44.7537  -59.9338 H         1 UNK         0.0840 
    111 H111       30.8276  -45.4445  -59.6991 H         1 UNK         0.0840 
    112 H112       32.0162  -47.7232  -56.3783 H         1 UNK         0.2987 
    113 H113       34.4654  -49.2009  -54.1632 H         1 UNK         0.0785 
    114 H114       34.8859  -46.8180  -54.1322 H         1 UNK         0.0798 
    115 H115       33.6136  -46.4908  -55.3046 H         1 UNK         0.0798 
    116 H116       35.0709  -47.3460  -55.7917 H         1 UNK         0.0798 
    117 H117       32.3509  -47.4137  -53.4591 H         1 UNK         0.3079 
    118 H118       30.0386  -48.8685  -52.4742 H         1 UNK         0.0794 
    119 H119       30.4451  -50.9987  -51.2685 H         1 UNK         0.0786 
    120 H120       29.9547  -49.7550  -50.1330 H         1 UNK         0.0786 
    121 H121       31.6506  -50.2251  -50.2453 H         1 UNK         0.0786 
    122 H122       32.2733  -47.4672  -51.1987 H         1 UNK         0.3032 
    123 H123       30.3635  -44.6366  -51.0234 H         1 UNK         0.1094 
    124 H124       30.8607  -44.1790  -48.6416 H         1 UNK         0.0794 
    125 H125       29.5718  -45.3621  -48.7546 H         1 UNK         0.0794 
    126 H126       31.2005  -45.8865  -48.3518 H         1 UNK         0.0794 
    127 H127       32.8564  -44.7226  -49.8976 H         1 UNK         0.3016 
@<TRIPOS>BOND
     1    1    2 1    
     2    1   67 1    
     3    1   68 1    
     4    1   69 1    
     5    2    3 2    
     6    2    4 am   BACKBONE|DICT|INTERRES
     7    4    5 1    
     8    4   70 1    
     9    5    6 1    
    10    5   65 1    
    11    5   71 1    
    12    6    7 1    
    13    6   72 1    
    14    6   73 1    
    15    7    8 1    
    16    8    9 1    
    17    8   74 1    
    18    8   75 1    
    19    9   10 ar   
    20    9   14 ar   
    21   10   11 ar   
    22   10   76 1    
    23   11   12 ar   
    24   11   48 1    
    25   12   13 ar   
    26   12   77 1    
    27   13   14 ar   
    28   13   15 1    
    29   14   78 1    
    30   15   16 1    
    31   15   79 1    
    32   15   80 1    
    33   16   17 1    
    34   17   18 1    
    35   17   81 1    
    36   17   82 1    
    37   18   19 1    
    38   18   22 1    
    39   18   83 1    
    40   19   20 am   BACKBONE|DICT|INTERRES
    41   19   21 2    
    42   20   84 1    
    43   20   85 1    
    44   22   23 am   BACKBONE|DICT|INTERRES
    45   22   86 1    
    46   23   24 2    
    47   23   25 1    
    48   25   26 1    
    49   25   27 1    
    50   25   87 1    
    51   26   88 1    
    52   26   89 1    
    53   26   90 1    
    54   27   28 am   BACKBONE|DICT|INTERRES
    55   27   91 1    
    56   28   29 2    
    57   28   30 1    
    58   30   31 1    
    59   30   32 1    
    60   30   92 1    
    61   31   93 1    
    62   31   94 1    
    63   31   95 1    
    64   32   33 am   BACKBONE|DICT|INTERRES
    65   32   96 1    
    66   33   34 2    
    67   33   35 1    
    68   35   36 1    
    69   35   37 1    
    70   35   97 1    
    71   36   98 1    
    72   36   99 1    
    73   36  100 1    
    74   37   38 am   BACKBONE|DICT|INTERRES
    75   37  101 1    
    76   38   39 2    
    77   38   40 1    
    78   40   41 1    
    79   40   42 1    
    80   40  102 1    
    81   41  103 1    
    82   41  104 1    
    83   41  105 1    
    84   42   43 am   BACKBONE|DICT|INTERRES
    85   42  106 1    
    86   43   44 2    
    87   43   45 1    
    88   45   46 1    
    89   45   49 1    
    90   45  107 1    
    91   46   47 1    
    92   46  108 1    
    93   46  109 1    
    94   47   48 1    
    95   48  110 1    
    96   48  111 1    
    97   49   50 am   BACKBONE|DICT|INTERRES
    98   49  112 1    
    99   50   51 2    
   100   50   52 1    
   101   52   53 1    
   102   52   54 1    
   103   52  113 1    
   104   53  114 1    
   105   53  115 1    
   106   53  116 1    
   107   54   55 am   BACKBONE|DICT|INTERRES
   108   54  117 1    
   109   55   56 2    
   110   55   57 1    
   111   57   58 1    
   112   57   59 1    
   113   57  118 1    
   114   58  119 1    
   115   58  120 1    
   116   58  121 1    
   117   59   60 am   BACKBONE|DICT|INTERRES
   118   59  122 1    
   119   60   61 2    
   120   60   62 1    
   121   62   63 1    
   122   62   64 1    
   123   62  123 1    
   124   63  124 1    
   125   63  125 1    
   126   63  126 1    
   127   64   65 am   BACKBONE|DICT|INTERRES
   128   64  127 1    
   129   65   66 2    
@<TRIPOS>SUBSTRUCTURE
     1 UNK         1 GROUP             0       ****    0 ROOT    
