@<TRIPOS>MOLECULE
3R134
127   129    1
SMALL
USER_CHARGES


@<TRIPOS>ATOM
      1 CA         32.3004  -41.5183  -57.8256 C.3       0 UNK        -0.1968 
      2 C          33.3371  -42.1409  -56.9018 C.2       0 UNK         0.4852 
      3 O          34.5317  -42.0722  -57.1947 O.2       0 UNK        -0.5359 
      4 N          32.8821  -42.7434  -55.7949 N.am      1 UNK        -0.4300 
      5 CA         33.6842  -43.4645  -54.8008 C.3       1 UNK         0.0863 
      6 C6         34.7155  -42.5456  -54.0834 C.3       11 UNK        -0.0953 
      7 S7         35.1707  -43.1165  -52.4107 S.3       11 UNK        -0.2369 
      8 C8         33.9771  -42.2213  -51.3674 C.3       11 UNK         0.0226 
      9 C9         32.5789  -42.8063  -51.4930 C.ar      11 UNK        -0.0699 
     10 C10        32.2798  -44.0322  -50.8918 C.ar      11 UNK        -0.0804 
     11 C11        31.0041  -44.5906  -51.0111 C.ar      11 UNK        -0.0871 
     12 C12        30.0195  -43.9060  -51.7296 C.ar      11 UNK        -0.1008 
     13 C13        30.3129  -42.6902  -52.3523 C.ar      11 UNK        -0.0735 
     14 C14        31.5907  -42.1378  -52.2217 C.ar      11 UNK        -0.0945 
     15 C15        29.2543  -41.9778  -53.1779 C.3       11 UNK         0.0169 
     16 S16        29.4650  -42.3177  -54.9528 S.3       11 UNK        -0.2669 
     17 C17        28.8616  -44.0390  -55.0935 C.3       11 UNK        -0.0850 
     18 CA         28.5125  -44.4037  -56.5656 C.3       10 UNK         0.0855 
     19 C          29.7499  -44.8316  -57.4119 C.2       10 UNK         0.5543 
     20 N          29.5902  -45.5889  -58.4894 N.am      10 UNK        -0.7343 
     21 O          30.8816  -44.4858  -57.0887 O.2       10 UNK        -0.5027 
     22 N          27.4096  -45.3753  -56.6377 N.am      10 UNK        -0.4495 
     23 C          26.4221  -45.3586  -57.5416 C.2       10 UNK         0.4903 
     24 O          26.2305  -44.4399  -58.3400 O.2       10 UNK        -0.4860 
     25 CA         25.5408  -46.6215  -57.5825 C.3       9 UNK         0.0227 
     26 CB         24.4778  -46.5895  -58.7006 C.3       9 UNK        -0.1964 
     27 N          26.3538  -47.8413  -57.6674 N.am      9 UNK        -0.4231 
     28 C          27.2446  -48.1710  -58.6166 C.2       9 UNK         0.5014 
     29 O          27.4625  -47.4916  -59.6206 O.2       9 UNK        -0.5270 
     30 CA         28.0699  -49.4531  -58.3970 C.3       8 UNK         0.0284 
     31 CB         29.4954  -49.0979  -57.9438 C.3       8 UNK        -0.1977 
     32 N          27.4811  -50.3656  -57.4165 N.am      8 UNK        -0.4342 
     33 C          26.3851  -51.1096  -57.6163 C.2       8 UNK         0.5039 
     34 O          25.7709  -51.1611  -58.6822 O.2       8 UNK        -0.5547 
     35 CA         25.8728  -51.9009  -56.4046 C.3       7 UNK         0.0281 
     36 CB         26.6454  -53.2207  -56.2457 C.3       7 UNK        -0.1963 
     37 N          25.9792  -51.1112  -55.1751 N.am      7 UNK        -0.4444 
     38 C          25.1124  -50.1537  -54.8180 C.2       7 UNK         0.5104 
     39 O          24.1032  -49.8693  -55.4624 O.2       7 UNK        -0.5100 
     40 CA         25.4222  -49.3704  -53.5315 C.3       6 UNK         0.0396 
     41 CB         24.7575  -50.0451  -52.3213 C.3       6 UNK        -0.1801 
     42 N          26.8558  -49.2158  -53.2735 N.am      6 UNK        -0.4747 
     43 C          27.6635  -48.3819  -53.9445 C.2       6 UNK         0.5012 
     44 O          27.2967  -47.6688  -54.8784 O.2       6 UNK        -0.5003 
     45 CA         29.1344  -48.3335  -53.4900 C.3       5 UNK         0.0782 
     46 C46        29.2360  -47.4445  -52.2255 C.3       11 UNK        -0.0868 
     47 S47        30.9224  -47.3038  -51.5474 S.3       11 UNK        -0.2515 
     48 C48        30.7019  -45.9348  -50.3663 C.3       11 UNK         0.0199 
     49 N          29.7682  -49.6451  -53.2943 N.am      5 UNK        -0.4607 
     50 C          29.6984  -50.7245  -54.0864 C.2       4 UNK         0.5031 
     51 O          28.9198  -50.8463  -55.0330 O.2       4 UNK        -0.5119 
     52 CA         30.7193  -51.8334  -53.7721 C.3       4 UNK         0.0263 
     53 CB         30.5110  -53.1078  -54.6187 C.3       4 UNK        -0.1967 
     54 N          32.0932  -51.3235  -53.8960 N.am      4 UNK        -0.4237 
     55 C          32.6656  -50.8131  -54.9984 C.2       3 UNK         0.4908 
     56 O          32.1655  -50.8408  -56.1251 O.2       3 UNK        -0.5102 
     57 CA         34.0519  -50.1724  -54.8083 C.3       3 UNK         0.0241 
     58 CB         35.1640  -51.1977  -55.0841 C.3       3 UNK        -0.1971 
     59 N          34.2339  -49.0131  -55.6874 N.am      3 UNK        -0.4139 
     60 C          33.5409  -47.8704  -55.5871 C.2       2 UNK         0.5016 
     61 O          32.7166  -47.6429  -54.6978 O.2       2 UNK        -0.5319 
     62 CA         33.7882  -46.8234  -56.6881 C.3       2 UNK         0.0286 
     63 CB         32.9095  -47.1243  -57.9122 C.3       2 UNK        -0.1963 
     64 N          33.4882  -45.4725  -56.2088 N.am      2 UNK        -0.4790 
     65 C          34.2705  -44.7800  -55.3676 C.2       1 UNK         0.5024 
     66 O          35.3991  -45.1553  -55.0423 O.2       1 UNK        -0.4888 
     67 H67        32.3175  -42.0162  -58.7946 H         1 UNK         0.0892 
     68 H68        31.2917  -41.6038  -57.4216 H         1 UNK         0.0892 
     69 H69        32.5163  -40.4612  -57.9780 H         1 UNK         0.0892 
     70 H70        31.8798  -42.8071  -55.6615 H         1 UNK         0.3107 
     71 H71        32.9569  -43.7927  -54.0583 H         1 UNK         0.0773 
     72 H72        35.6251  -42.4456  -54.6780 H         1 UNK         0.0680 
     73 H73        34.3157  -41.5347  -53.9926 H         1 UNK         0.0680 
     74 H74        33.9851  -41.1604  -51.6221 H         1 UNK         0.0650 
     75 H75        34.3014  -42.2877  -50.3280 H         1 UNK         0.0650 
     76 H76        33.0488  -44.5579  -50.3420 H         1 UNK         0.1397 
     77 H77        29.0267  -44.3223  -51.8187 H         1 UNK         0.1363 
     78 H78        31.8198  -41.1977  -52.7050 H         1 UNK         0.1355 
     79 H79        28.2505  -42.2646  -52.8604 H         1 UNK         0.0707 
     80 H80        29.3288  -40.9017  -53.0147 H         1 UNK         0.0707 
     81 H81        27.9721  -44.1272  -54.4677 H         1 UNK         0.1034 
     82 H82        29.5962  -44.7274  -54.6703 H         1 UNK         0.1034 
     83 H83        28.1632  -43.4860  -57.0419 H         1 UNK         0.0482 
     84 H84        30.4015  -45.8382  -59.0294 H         1 UNK         0.3460 
     85 H85        28.6753  -45.9035  -58.7843 H         1 UNK         0.3460 
     86 H86        27.4841  -46.1898  -56.0329 H         1 UNK         0.2989 
     87 H87        25.0165  -46.6666  -56.6267 H         1 UNK         0.0559 
     88 H88        24.9297  -46.5140  -59.6902 H         1 UNK         0.0848 
     89 H89        23.8128  -45.7333  -58.5815 H         1 UNK         0.0848 
     90 H90        23.8584  -47.4862  -58.6828 H         1 UNK         0.0848 
     91 H91        26.3185  -48.4363  -56.8506 H         1 UNK         0.3144 
     92 H92        28.1321  -49.9742  -59.3546 H         1 UNK         0.0727 
     93 H93        30.1026  -49.9922  -57.8015 H         1 UNK         0.0790 
     94 H94        29.4958  -48.5432  -57.0042 H         1 UNK         0.0790 
     95 H95        29.9988  -48.4823  -58.6897 H         1 UNK         0.0790 
     96 H96        27.9623  -50.4468  -56.5206 H         1 UNK         0.3215 
     97 H97        24.8218  -52.1428  -56.5791 H         1 UNK         0.0863 
     98 H98        27.7121  -53.0526  -56.0956 H         1 UNK         0.0808 
     99 H99        26.5376  -53.8420  -57.1358 H         1 UNK         0.0808 
    100 H100       26.2738  -53.7992  -55.3999 H         1 UNK         0.0808 
    101 H101       26.8307  -51.2179  -54.6379 H         1 UNK         0.3118 
    102 H102       24.9880  -48.3740  -53.6414 H         1 UNK         0.0546 
    103 H103       24.8971  -49.4585  -51.4131 H         1 UNK         0.0828 
    104 H104       25.1582  -51.0436  -52.1425 H         1 UNK         0.0828 
    105 H105       23.6823  -50.1488  -52.4748 H         1 UNK         0.0828 
    106 H106       27.2516  -49.7707  -52.5279 H         1 UNK         0.3005 
    107 H107       29.6971  -47.8474  -54.2905 H         1 UNK         0.1257 
    108 H108       28.5962  -47.8297  -51.4287 H         1 UNK         0.0775 
    109 H109       28.8692  -46.4444  -52.4553 H         1 UNK         0.0775 
    110 H110       29.6896  -45.9439  -49.9592 H         1 UNK         0.0840 
    111 H111       31.3673  -46.0980  -49.5171 H         1 UNK         0.0840 
    112 H112       30.4546  -49.6556  -52.5536 H         1 UNK         0.2987 
    113 H113       30.5762  -52.1082  -52.7258 H         1 UNK         0.0785 
    114 H114       31.2538  -53.8686  -54.3797 H         1 UNK         0.0798 
    115 H115       29.5292  -53.5418  -54.4275 H         1 UNK         0.0798 
    116 H116       30.5711  -52.9054  -55.6886 H         1 UNK         0.0798 
    117 H117       32.6105  -51.2655  -53.0293 H         1 UNK         0.3079 
    118 H118       34.1421  -49.8259  -53.7764 H         1 UNK         0.0794 
    119 H119       35.0727  -52.0611  -54.4236 H         1 UNK         0.0786 
    120 H120       36.1520  -50.7676  -54.9176 H         1 UNK         0.0786 
    121 H121       35.1260  -51.5676  -56.1097 H         1 UNK         0.0786 
    122 H122       34.8568  -49.1387  -56.4716 H         1 UNK         0.3032 
    123 H123       34.8383  -46.8628  -56.9869 H         1 UNK         0.1094 
    124 H124       31.8538  -47.1513  -57.6425 H         1 UNK         0.0794 
    125 H125       33.0405  -46.3744  -58.6925 H         1 UNK         0.0794 
    126 H126       33.1570  -48.0942  -58.3456 H         1 UNK         0.0794 
    127 H127       32.5684  -45.1038  -56.4393 H         1 UNK         0.3016 
@<TRIPOS>BOND
     1    1    2 1    
     2    1   67 1    
     3    1   68 1    
     4    1   69 1    
     5    2    3 2    
     6    2    4 am   BACKBONE|DICT|INTERRES
     7    4    5 1    
     8    4   70 1    
     9    5    6 1    
    10    5   65 1    
    11    5   71 1    
    12    6    7 1    
    13    6   72 1    
    14    6   73 1    
    15    7    8 1    
    16    8    9 1    
    17    8   74 1    
    18    8   75 1    
    19    9   10 ar   
    20    9   14 ar   
    21   10   11 ar   
    22   10   76 1    
    23   11   12 ar   
    24   11   48 1    
    25   12   13 ar   
    26   12   77 1    
    27   13   14 ar   
    28   13   15 1    
    29   14   78 1    
    30   15   16 1    
    31   15   79 1    
    32   15   80 1    
    33   16   17 1    
    34   17   18 1    
    35   17   81 1    
    36   17   82 1    
    37   18   19 1    
    38   18   22 1    
    39   18   83 1    
    40   19   20 am   BACKBONE|DICT|INTERRES
    41   19   21 2    
    42   20   84 1    
    43   20   85 1    
    44   22   23 am   BACKBONE|DICT|INTERRES
    45   22   86 1    
    46   23   24 2    
    47   23   25 1    
    48   25   26 1    
    49   25   27 1    
    50   25   87 1    
    51   26   88 1    
    52   26   89 1    
    53   26   90 1    
    54   27   28 am   BACKBONE|DICT|INTERRES
    55   27   91 1    
    56   28   29 2    
    57   28   30 1    
    58   30   31 1    
    59   30   32 1    
    60   30   92 1    
    61   31   93 1    
    62   31   94 1    
    63   31   95 1    
    64   32   33 am   BACKBONE|DICT|INTERRES
    65   32   96 1    
    66   33   34 2    
    67   33   35 1    
    68   35   36 1    
    69   35   37 1    
    70   35   97 1    
    71   36   98 1    
    72   36   99 1    
    73   36  100 1    
    74   37   38 am   BACKBONE|DICT|INTERRES
    75   37  101 1    
    76   38   39 2    
    77   38   40 1    
    78   40   41 1    
    79   40   42 1    
    80   40  102 1    
    81   41  103 1    
    82   41  104 1    
    83   41  105 1    
    84   42   43 am   BACKBONE|DICT|INTERRES
    85   42  106 1    
    86   43   44 2    
    87   43   45 1    
    88   45   46 1    
    89   45   49 1    
    90   45  107 1    
    91   46   47 1    
    92   46  108 1    
    93   46  109 1    
    94   47   48 1    
    95   48  110 1    
    96   48  111 1    
    97   49   50 am   BACKBONE|DICT|INTERRES
    98   49  112 1    
    99   50   51 2    
   100   50   52 1    
   101   52   53 1    
   102   52   54 1    
   103   52  113 1    
   104   53  114 1    
   105   53  115 1    
   106   53  116 1    
   107   54   55 am   BACKBONE|DICT|INTERRES
   108   54  117 1    
   109   55   56 2    
   110   55   57 1    
   111   57   58 1    
   112   57   59 1    
   113   57  118 1    
   114   58  119 1    
   115   58  120 1    
   116   58  121 1    
   117   59   60 am   BACKBONE|DICT|INTERRES
   118   59  122 1    
   119   60   61 2    
   120   60   62 1    
   121   62   63 1    
   122   62   64 1    
   123   62  123 1    
   124   63  124 1    
   125   63  125 1    
   126   63  126 1    
   127   64   65 am   BACKBONE|DICT|INTERRES
   128   64  127 1    
   129   65   66 2    
@<TRIPOS>SUBSTRUCTURE
     1 UNK         1 GROUP             0       ****    0 ROOT    
