@<TRIPOS>MOLECULE
3R134
127   129    1
SMALL
USER_CHARGES


@<TRIPOS>ATOM
      1 CA         37.1690  -46.0552  -55.8368 C.3       0 UNK        -0.1968 
      2 C          36.0210  -45.2951  -55.1886 C.2       0 UNK         0.4852 
      3 O          35.7286  -44.1723  -55.5978 O.2       0 UNK        -0.5359 
      4 N          35.3813  -45.9037  -54.1855 N.am      1 UNK        -0.4300 
      5 CA         34.2064  -45.4331  -53.4536 C.3       1 UNK         0.0863 
      6 C6         34.4840  -44.1699  -52.5859 C.3       11 UNK        -0.0953 
      7 S7         32.9785  -43.2377  -52.1145 S.3       11 UNK        -0.2369 
      8 C8         32.9951  -41.8013  -53.2387 C.3       11 UNK         0.0226 
      9 C9         32.0622  -42.0044  -54.4240 C.ar      11 UNK        -0.0699 
     10 C10        32.4363  -42.8503  -55.4674 C.ar      11 UNK        -0.0804 
     11 C11        31.5793  -43.0837  -56.5452 C.ar      11 UNK        -0.0871 
     12 C12        30.3592  -42.4030  -56.6086 C.ar      11 UNK        -0.1008 
     13 C13        29.9852  -41.5190  -55.5897 C.ar      11 UNK        -0.0735 
     14 C14        30.8334  -41.3399  -54.4904 C.ar      11 UNK        -0.0945 
     15 C15        28.6876  -40.7224  -55.6888 C.3       11 UNK         0.0169 
     16 S16        27.2024  -41.7635  -55.8698 S.3       11 UNK        -0.2669 
     17 C17        27.2763  -42.7817  -54.3586 C.3       11 UNK        -0.0850 
     18 CA         27.6210  -44.2590  -54.6777 C.3       10 UNK         0.0855 
     19 C          27.9465  -45.0287  -53.3764 C.2       10 UNK         0.5543 
     20 N          29.2060  -45.0395  -52.9644 N.am      10 UNK        -0.7343 
     21 O          27.0633  -45.5754  -52.7189 O.2       10 UNK        -0.5027 
     22 N          26.5261  -44.9241  -55.3991 N.am      10 UNK        -0.4495 
     23 C          26.5772  -45.3458  -56.6651 C.2       10 UNK         0.4903 
     24 O          27.5434  -45.1875  -57.4138 O.2       10 UNK        -0.4860 
     25 CA         25.3253  -46.0487  -57.2026 C.3       9 UNK         0.0227 
     26 CB         24.4947  -45.0630  -58.0500 C.3       9 UNK        -0.1964 
     27 N          25.7626  -47.2016  -57.9875 N.am      9 UNK        -0.4231 
     28 C          24.9938  -48.1269  -58.5753 C.2       9 UNK         0.5014 
     29 O          23.7627  -48.1281  -58.5427 O.2       9 UNK        -0.5270 
     30 CA         25.7274  -49.2651  -59.3001 C.3       8 UNK         0.0284 
     31 CB         26.6746  -48.7319  -60.3908 C.3       8 UNK        -0.1977 
     32 N          26.4884  -50.0405  -58.3235 N.am      8 UNK        -0.4342 
     33 C          26.1783  -51.2721  -57.8956 C.2       8 UNK         0.5039 
     34 O          25.2861  -51.9662  -58.3853 O.2       8 UNK        -0.5547 
     35 CA         26.9863  -51.8266  -56.7027 C.3       7 UNK         0.0281 
     36 CB         28.1567  -52.6902  -57.1997 C.3       7 UNK        -0.1963 
     37 N          27.5077  -50.7835  -55.8151 N.am      7 UNK        -0.4444 
     38 C          26.7596  -49.9028  -55.1356 C.2       7 UNK         0.5104 
     39 O          25.5330  -49.9674  -55.0532 O.2       7 UNK        -0.5100 
     40 CA         27.4904  -48.7246  -54.4674 C.3       6 UNK         0.0396 
     41 CB         27.5758  -48.9534  -52.9510 C.3       6 UNK        -0.1801 
     42 N          28.8315  -48.4280  -54.9932 N.am      6 UNK        -0.4747 
     43 C          29.1394  -48.1277  -56.2661 C.2       6 UNK         0.5012 
     44 O          28.3298  -48.1815  -57.1916 O.2       6 UNK        -0.5003 
     45 CA         30.5927  -47.7445  -56.5784 C.3       5 UNK         0.0782 
     46 C46        30.8538  -46.2556  -56.2607 C.3       11 UNK        -0.0868 
     47 S47        32.4365  -45.6998  -56.9734 S.3       11 UNK        -0.2515 
     48 C48        31.9831  -44.0625  -57.6412 C.3       11 UNK         0.0199 
     49 N          31.5110  -48.6295  -55.8600 N.am      5 UNK        -0.4607 
     50 C          32.2164  -49.6141  -56.4301 C.2       4 UNK         0.5031 
     51 O          32.1826  -49.8767  -57.6325 O.2       4 UNK        -0.5119 
     52 CA         33.1183  -50.4574  -55.5108 C.3       4 UNK         0.0263 
     53 CB         34.5541  -49.9077  -55.5277 C.3       4 UNK        -0.1967 
     54 N          32.6398  -50.5263  -54.1277 N.am      4 UNK        -0.4237 
     55 C          31.5112  -51.1427  -53.7447 C.2       3 UNK         0.4908 
     56 O          30.7737  -51.7609  -54.5134 O.2       3 UNK        -0.5102 
     57 CA         31.1157  -51.0344  -52.2599 C.3       3 UNK         0.0241 
     58 CB         31.6164  -52.2649  -51.4865 C.3       3 UNK        -0.1971 
     59 N          31.5711  -49.8179  -51.5743 N.am      3 UNK        -0.4139 
     60 C          31.3511  -48.5547  -51.9667 C.2       2 UNK         0.5016 
     61 O          30.7713  -48.2547  -53.0124 O.2       2 UNK        -0.5319 
     62 CA         31.8902  -47.4214  -51.0729 C.3       2 UNK         0.0286 
     63 CB         32.7563  -47.8975  -49.8835 C.3       2 UNK        -0.1963 
     64 N          32.6117  -46.4228  -51.8700 N.am      2 UNK        -0.4790 
     65 C          33.6810  -46.6385  -52.6476 C.2       1 UNK         0.5024 
     66 O          34.2401  -47.7367  -52.7511 O.2       1 UNK        -0.4888 
     67 H67        37.3201  -47.0338  -55.3812 H         1 UNK         0.0892 
     68 H68        36.9672  -46.2032  -56.8974 H         1 UNK         0.0892 
     69 H69        38.0952  -45.4894  -55.7410 H         1 UNK         0.0892 
     70 H70        35.6455  -46.8420  -53.9050 H         1 UNK         0.3107 
     71 H71        33.4391  -45.2054  -54.1924 H         1 UNK         0.0773 
     72 H72        35.1518  -43.4866  -53.1097 H         1 UNK         0.0680 
     73 H73        35.0199  -44.4434  -51.6751 H         1 UNK         0.0680 
     74 H74        34.0062  -41.5947  -53.5914 H         1 UNK         0.0650 
     75 H75        32.6912  -40.9208  -52.6708 H         1 UNK         0.0650 
     76 H76        33.3934  -43.3465  -55.4320 H         1 UNK         0.1397 
     77 H77        29.6965  -42.5576  -57.4496 H         1 UNK         0.1363 
     78 H78        30.5469  -40.6667  -53.6940 H         1 UNK         0.1355 
     79 H79        28.5579  -40.0797  -54.8164 H         1 UNK         0.0707 
     80 H80        28.7524  -40.0561  -56.5500 H         1 UNK         0.0707 
     81 H81        28.0100  -42.3496  -53.6751 H         1 UNK         0.1034 
     82 H82        26.3158  -42.7133  -53.8446 H         1 UNK         0.1034 
     83 H83        28.5257  -44.2749  -55.2881 H         1 UNK         0.0482 
     84 H84        29.9252  -44.5515  -53.4734 H         1 UNK         0.3460 
     85 H85        29.4285  -45.5281  -52.1137 H         1 UNK         0.3460 
     86 H86        25.7127  -45.1330  -54.8371 H         1 UNK         0.2989 
     87 H87        24.7246  -46.4112  -56.3661 H         1 UNK         0.0559 
     88 H88        24.2525  -44.1659  -57.4786 H         1 UNK         0.0848 
     89 H89        23.5495  -45.4987  -58.3722 H         1 UNK         0.0848 
     90 H90        25.0384  -44.7443  -58.9403 H         1 UNK         0.0848 
     91 H91        26.7740  -47.3140  -58.0156 H         1 UNK         0.3144 
     92 H92        24.9751  -49.8904  -59.7856 H         1 UNK         0.0727 
     93 H93        27.1164  -49.5510  -60.9583 H         1 UNK         0.0790 
     94 H94        27.4916  -48.1395  -59.9770 H         1 UNK         0.0790 
     95 H95        26.1371  -48.1003  -61.0995 H         1 UNK         0.0790 
     96 H96        27.2215  -49.5316  -57.8342 H         1 UNK         0.3215 
     97 H97        26.3147  -52.4566  -56.1157 H         1 UNK         0.0863 
     98 H98        28.6946  -53.1470  -56.3683 H         1 UNK         0.0808 
     99 H99        28.8718  -52.1056  -57.7802 H         1 UNK         0.0808 
    100 H100       27.8007  -53.4994  -57.8388 H         1 UNK         0.0808 
    101 H101       28.5112  -50.6656  -55.7881 H         1 UNK         0.3118 
    102 H102       26.8815  -47.8357  -54.6404 H         1 UNK         0.0546 
    103 H103       28.1415  -49.8525  -52.7130 H         1 UNK         0.0828 
    104 H104       26.5816  -49.0695  -52.5176 H         1 UNK         0.0828 
    105 H105       28.0501  -48.1134  -52.4444 H         1 UNK         0.0828 
    106 H106       29.5681  -48.3614  -54.2902 H         1 UNK         0.3005 
    107 H107       30.7131  -47.8756  -57.6566 H         1 UNK         0.1257 
    108 H108       30.8682  -46.0787  -55.1838 H         1 UNK         0.0775 
    109 H109       30.0552  -45.6324  -56.6662 H         1 UNK         0.0775 
    110 H110       32.8380  -43.6536  -58.1812 H         1 UNK         0.0840 
    111 H111       31.1830  -44.1844  -58.3733 H         1 UNK         0.0840 
    112 H112       31.5570  -48.5074  -54.8542 H         1 UNK         0.2987 
    113 H113       33.1356  -51.4742  -55.9090 H         1 UNK         0.0785 
    114 H114       34.9616  -49.9172  -56.5396 H         1 UNK         0.0798 
    115 H115       35.2192  -50.5067  -54.9054 H         1 UNK         0.0798 
    116 H116       34.5954  -48.8776  -55.1728 H         1 UNK         0.0798 
    117 H117       33.1718  -50.0167  -53.4349 H         1 UNK         0.3079 
    118 H118       30.0263  -51.0366  -52.2203 H         1 UNK         0.0794 
    119 H119       31.2445  -52.2698  -50.4617 H         1 UNK         0.0786 
    120 H120       32.7060  -52.3030  -51.4501 H         1 UNK         0.0786 
    121 H121       31.2737  -53.1883  -51.9562 H         1 UNK         0.0786 
    122 H122       32.0810  -49.9569  -50.7140 H         1 UNK         0.3032 
    123 H123       31.0117  -46.9207  -50.6636 H         1 UNK         0.1094 
    124 H124       33.6370  -48.4535  -50.2075 H         1 UNK         0.0794 
    125 H125       33.1057  -47.0492  -49.2947 H         1 UNK         0.0794 
    126 H126       32.1868  -48.5351  -49.2060 H         1 UNK         0.0794 
    127 H127       32.2344  -45.4837  -51.8511 H         1 UNK         0.3016 
@<TRIPOS>BOND
     1    1    2 1    
     2    1   67 1    
     3    1   68 1    
     4    1   69 1    
     5    2    3 2    
     6    2    4 am   BACKBONE|DICT|INTERRES
     7    4    5 1    
     8    4   70 1    
     9    5    6 1    
    10    5   65 1    
    11    5   71 1    
    12    6    7 1    
    13    6   72 1    
    14    6   73 1    
    15    7    8 1    
    16    8    9 1    
    17    8   74 1    
    18    8   75 1    
    19    9   10 ar   
    20    9   14 ar   
    21   10   11 ar   
    22   10   76 1    
    23   11   12 ar   
    24   11   48 1    
    25   12   13 ar   
    26   12   77 1    
    27   13   14 ar   
    28   13   15 1    
    29   14   78 1    
    30   15   16 1    
    31   15   79 1    
    32   15   80 1    
    33   16   17 1    
    34   17   18 1    
    35   17   81 1    
    36   17   82 1    
    37   18   19 1    
    38   18   22 1    
    39   18   83 1    
    40   19   20 am   BACKBONE|DICT|INTERRES
    41   19   21 2    
    42   20   84 1    
    43   20   85 1    
    44   22   23 am   BACKBONE|DICT|INTERRES
    45   22   86 1    
    46   23   24 2    
    47   23   25 1    
    48   25   26 1    
    49   25   27 1    
    50   25   87 1    
    51   26   88 1    
    52   26   89 1    
    53   26   90 1    
    54   27   28 am   BACKBONE|DICT|INTERRES
    55   27   91 1    
    56   28   29 2    
    57   28   30 1    
    58   30   31 1    
    59   30   32 1    
    60   30   92 1    
    61   31   93 1    
    62   31   94 1    
    63   31   95 1    
    64   32   33 am   BACKBONE|DICT|INTERRES
    65   32   96 1    
    66   33   34 2    
    67   33   35 1    
    68   35   36 1    
    69   35   37 1    
    70   35   97 1    
    71   36   98 1    
    72   36   99 1    
    73   36  100 1    
    74   37   38 am   BACKBONE|DICT|INTERRES
    75   37  101 1    
    76   38   39 2    
    77   38   40 1    
    78   40   41 1    
    79   40   42 1    
    80   40  102 1    
    81   41  103 1    
    82   41  104 1    
    83   41  105 1    
    84   42   43 am   BACKBONE|DICT|INTERRES
    85   42  106 1    
    86   43   44 2    
    87   43   45 1    
    88   45   46 1    
    89   45   49 1    
    90   45  107 1    
    91   46   47 1    
    92   46  108 1    
    93   46  109 1    
    94   47   48 1    
    95   48  110 1    
    96   48  111 1    
    97   49   50 am   BACKBONE|DICT|INTERRES
    98   49  112 1    
    99   50   51 2    
   100   50   52 1    
   101   52   53 1    
   102   52   54 1    
   103   52  113 1    
   104   53  114 1    
   105   53  115 1    
   106   53  116 1    
   107   54   55 am   BACKBONE|DICT|INTERRES
   108   54  117 1    
   109   55   56 2    
   110   55   57 1    
   111   57   58 1    
   112   57   59 1    
   113   57  118 1    
   114   58  119 1    
   115   58  120 1    
   116   58  121 1    
   117   59   60 am   BACKBONE|DICT|INTERRES
   118   59  122 1    
   119   60   61 2    
   120   60   62 1    
   121   62   63 1    
   122   62   64 1    
   123   62  123 1    
   124   63  124 1    
   125   63  125 1    
   126   63  126 1    
   127   64   65 am   BACKBONE|DICT|INTERRES
   128   64  127 1    
   129   65   66 2    
@<TRIPOS>SUBSTRUCTURE
     1 UNK         1 GROUP             0       ****    0 ROOT    
