@<TRIPOS>MOLECULE
3R134
127   129    1
SMALL
USER_CHARGES


@<TRIPOS>ATOM
      1 CA         34.1937  -44.9958  -47.3232 C.3       0 UNK        -0.1968 
      2 C          35.2192  -45.2358  -48.4217 C.2       0 UNK         0.4852 
      3 O          36.3445  -45.6446  -48.1291 O.2       0 UNK        -0.5359 
      4 N          34.8420  -44.9769  -49.6800 N.am      1 UNK        -0.4300 
      5 CA         35.6607  -45.2247  -50.8697 C.3       1 UNK         0.0863 
      6 C6         35.1697  -44.3836  -52.0774 C.3       11 UNK        -0.0953 
      7 S7         33.4770  -44.7900  -52.6254 S.3       11 UNK        -0.2369 
      8 C8         33.1060  -43.3578  -53.6791 C.3       11 UNK         0.0226 
      9 C9         31.7563  -43.5319  -54.3547 C.ar      11 UNK        -0.0699 
     10 C10        30.5849  -43.4372  -53.5994 C.ar      11 UNK        -0.0804 
     11 C11        29.3366  -43.6471  -54.1914 C.ar      11 UNK        -0.0871 
     12 C12        29.2633  -43.9036  -55.5631 C.ar      11 UNK        -0.1008 
     13 C13        30.4295  -44.0113  -56.3272 C.ar      11 UNK        -0.0735 
     14 C14        31.6741  -43.8200  -55.7203 C.ar      11 UNK        -0.0945 
     15 C15        30.3366  -44.3787  -57.7979 C.3       11 UNK         0.0169 
     16 S16        30.2105  -46.1846  -57.9777 S.3       11 UNK        -0.2669 
     17 C17        29.5198  -46.3764  -59.6623 C.3       11 UNK        -0.0850 
     18 CA         28.0888  -45.7948  -59.8531 C.3       10 UNK         0.0855 
     19 C          27.5208  -46.1421  -61.2560 C.2       10 UNK         0.5543 
     20 N          26.4083  -46.8530  -61.3794 N.am      10 UNK        -0.7343 
     21 O          28.0996  -45.7402  -62.2626 O.2       10 UNK        -0.5027 
     22 N          27.2063  -46.1340  -58.7261 N.am      10 UNK        -0.4495 
     23 C          26.3730  -45.2686  -58.1385 C.2       10 UNK         0.4903 
     24 O          26.1037  -44.1547  -58.5921 O.2       10 UNK        -0.4860 
     25 CA         25.8047  -45.7035  -56.7763 C.3       9 UNK         0.0227 
     26 CB         24.9750  -44.6057  -56.0753 C.3       9 UNK        -0.1964 
     27 N          25.0737  -46.9703  -56.8412 N.am      9 UNK        -0.4231 
     28 C          23.9390  -47.2177  -57.5118 C.2       9 UNK         0.5014 
     29 O          23.3178  -46.3749  -58.1628 O.2       9 UNK        -0.5270 
     30 CA         23.4270  -48.6699  -57.4379 C.3       8 UNK         0.0284 
     31 CB         22.1017  -48.8865  -58.2007 C.3       8 UNK        -0.1977 
     32 N          24.4427  -49.6359  -57.8751 N.am      8 UNK        -0.4342 
     33 C          25.0614  -49.6758  -59.0661 C.2       8 UNK         0.5039 
     34 O          24.8173  -48.9061  -59.9960 O.2       8 UNK        -0.5547 
     35 CA         26.1570  -50.7503  -59.2240 C.3       7 UNK         0.0281 
     36 CB         27.0290  -50.5364  -60.4812 C.3       7 UNK        -0.1963 
     37 N          26.9980  -50.8817  -58.0249 N.am      7 UNK        -0.4444 
     38 C          27.7392  -49.9159  -57.4629 C.2       7 UNK         0.5104 
     39 O          27.8336  -48.7712  -57.9099 O.2       7 UNK        -0.5100 
     40 CA         28.4992  -50.3120  -56.1833 C.3       6 UNK         0.0396 
     41 CB         29.7816  -51.0772  -56.5465 C.3       6 UNK        -0.1801 
     42 N          28.8485  -49.1649  -55.3378 N.am      6 UNK        -0.4747 
     43 C          27.9696  -48.3030  -54.8006 C.2       6 UNK         0.5012 
     44 O          26.7470  -48.4299  -54.9180 O.2       6 UNK        -0.5003 
     45 CA         28.5443  -47.0937  -54.0220 C.3       5 UNK         0.0782 
     46 C46        27.4778  -46.4147  -53.1130 C.3       11 UNK        -0.0868 
     47 S47        28.0820  -44.9993  -52.1289 S.3       11 UNK        -0.2515 
     48 C48        28.0799  -43.6293  -53.3336 C.3       11 UNK         0.0199 
     49 N          29.8148  -47.3950  -53.3493 N.am      5 UNK        -0.4607 
     50 C          30.0175  -48.2995  -52.3824 C.2       4 UNK         0.5031 
     51 O          29.1135  -48.9579  -51.8654 O.2       4 UNK        -0.5119 
     52 CA         31.4780  -48.5160  -51.9233 C.3       4 UNK         0.0263 
     53 CB         31.7125  -49.9449  -51.3907 C.3       4 UNK        -0.1967 
     54 N          32.5102  -48.1891  -52.9206 N.am      4 UNK        -0.4237 
     55 C          32.6198  -48.6583  -54.1753 C.2       3 UNK         0.4908 
     56 O          31.7771  -49.3707  -54.7180 O.2       3 UNK        -0.5102 
     57 CA         33.8749  -48.2621  -54.9729 C.3       3 UNK         0.0241 
     58 CB         33.5902  -47.0335  -55.8509 C.3       3 UNK        -0.1971 
     59 N          35.0409  -48.0013  -54.1243 N.am      3 UNK        -0.4139 
     60 C          35.7365  -48.9488  -53.4767 C.2       2 UNK         0.5016 
     61 O          35.5101  -50.1548  -53.5799 O.2       2 UNK        -0.5319 
     62 CA         36.8744  -48.4778  -52.5492 C.3       2 UNK         0.0286 
     63 CB         38.2301  -48.5815  -53.2668 C.3       2 UNK        -0.1963 
     64 N          36.7023  -47.1119  -52.0385 N.am      2 UNK        -0.4790 
     65 C          35.7201  -46.7301  -51.2099 C.2       1 UNK         0.5024 
     66 O          34.8561  -47.5005  -50.7822 O.2       1 UNK        -0.4888 
     67 H67        34.5729  -44.2662  -46.6082 H         1 UNK         0.0892 
     68 H68        33.2502  -44.6220  -47.7207 H         1 UNK         0.0892 
     69 H69        33.9923  -45.9242  -46.7896 H         1 UNK         0.0892 
     70 H70        33.8958  -44.6774  -49.8667 H         1 UNK         0.3107 
     71 H71        36.6801  -44.9066  -50.6400 H         1 UNK         0.0773 
     72 H72        35.2045  -43.3244  -51.8168 H         1 UNK         0.0680 
     73 H73        35.8446  -44.4984  -52.9274 H         1 UNK         0.0680 
     74 H74        33.8974  -43.2393  -54.4208 H         1 UNK         0.0650 
     75 H75        33.1012  -42.4499  -53.0742 H         1 UNK         0.0650 
     76 H76        30.6481  -43.2405  -52.5376 H         1 UNK         0.1397 
     77 H77        28.3029  -44.0621  -56.0323 H         1 UNK         0.1363 
     78 H78        32.5771  -43.9154  -56.3076 H         1 UNK         0.1355 
     79 H79        31.2072  -44.0171  -58.3471 H         1 UNK         0.0707 
     80 H80        29.4672  -43.8854  -58.2312 H         1 UNK         0.0707 
     81 H81        30.2123  -45.9266  -60.3761 H         1 UNK         0.1034 
     82 H82        29.5152  -47.4461  -59.8811 H         1 UNK         0.1034 
     83 H83        28.2005  -44.7103  -59.8783 H         1 UNK         0.0482 
     84 H84        26.0594  -47.0556  -62.3019 H         1 UNK         0.3460 
     85 H85        25.9361  -47.2508  -60.5758 H         1 UNK         0.3460 
     86 H86        27.3645  -47.0539  -58.3169 H         1 UNK         0.2989 
     87 H87        26.6728  -45.8939  -56.1467 H         1 UNK         0.0559 
     88 H88        25.5641  -43.6978  -55.9420 H         1 UNK         0.0848 
     89 H89        24.6460  -44.9265  -55.0870 H         1 UNK         0.0848 
     90 H90        24.0907  -44.3315  -56.6509 H         1 UNK         0.0848 
     91 H91        25.5138  -47.7359  -56.3377 H         1 UNK         0.3144 
     92 H92        23.2349  -48.8748  -56.3834 H         1 UNK         0.0727 
     93 H93        22.2065  -48.6760  -59.2656 H         1 UNK         0.0790 
     94 H94        21.3195  -48.2308  -57.8162 H         1 UNK         0.0790 
     95 H95        21.7460  -49.9113  -58.0952 H         1 UNK         0.0790 
     96 H96        24.7389  -50.3034  -57.1765 H         1 UNK         0.3215 
     97 H97        25.6339  -51.7003  -59.3447 H         1 UNK         0.0863 
     98 H98        27.7829  -51.3171  -60.5798 H         1 UNK         0.0808 
     99 H99        27.5426  -49.5745  -60.4608 H         1 UNK         0.0808 
    100 H100       26.4209  -50.5576  -61.3864 H         1 UNK         0.0808 
    101 H101       26.9881  -51.7910  -57.5826 H         1 UNK         0.3118 
    102 H102       27.8554  -50.9678  -55.5941 H         1 UNK         0.0546 
    103 H103       30.4847  -50.4439  -57.0894 H         1 UNK         0.0828 
    104 H104       29.5668  -51.9413  -57.1764 H         1 UNK         0.0828 
    105 H105       30.2862  -51.4491  -55.6547 H         1 UNK         0.0828 
    106 H106       29.8403  -49.0193  -55.1736 H         1 UNK         0.3005 
    107 H107       28.8040  -46.3850  -54.8051 H         1 UNK         0.1257 
    108 H108       27.0754  -47.1450  -52.4089 H         1 UNK         0.0775 
    109 H109       26.6258  -46.0765  -53.7044 H         1 UNK         0.0775 
    110 H110       27.1773  -43.6723  -53.9444 H         1 UNK         0.0840 
    111 H111       28.0372  -42.6841  -52.7907 H         1 UNK         0.0840 
    112 H112       30.6198  -46.8951  -53.6983 H         1 UNK         0.2987 
    113 H113       31.6346  -47.8245  -51.0940 H         1 UNK         0.0785 
    114 H114       31.0532  -50.1684  -50.5511 H         1 UNK         0.0798 
    115 H115       32.7363  -50.0713  -51.0377 H         1 UNK         0.0798 
    116 H116       31.5282  -50.6945  -52.1611 H         1 UNK         0.0798 
    117 H117       33.2576  -47.6003  -52.5764 H         1 UNK         0.3079 
    118 H118       34.1164  -49.0986  -55.6325 H         1 UNK         0.0794 
    119 H119       34.4443  -46.7877  -56.4819 H         1 UNK         0.0786 
    120 H120       33.3499  -46.1557  -55.2528 H         1 UNK         0.0786 
    121 H121       32.7424  -47.2161  -56.5127 H         1 UNK         0.0786 
    122 H122       35.3072  -47.0369  -53.9912 H         1 UNK         0.3032 
    123 H123       36.8875  -49.1555  -51.6922 H         1 UNK         0.1094 
    124 H124       38.4003  -49.5946  -53.6346 H         1 UNK         0.0794 
    125 H125       39.0548  -48.3413  -52.5955 H         1 UNK         0.0794 
    126 H126       38.2866  -47.9103  -54.1247 H         1 UNK         0.0794 
    127 H127       37.3735  -46.4244  -52.3519 H         1 UNK         0.3016 
@<TRIPOS>BOND
     1    1    2 1    
     2    1   67 1    
     3    1   68 1    
     4    1   69 1    
     5    2    3 2    
     6    2    4 am   BACKBONE|DICT|INTERRES
     7    4    5 1    
     8    4   70 1    
     9    5    6 1    
    10    5   65 1    
    11    5   71 1    
    12    6    7 1    
    13    6   72 1    
    14    6   73 1    
    15    7    8 1    
    16    8    9 1    
    17    8   74 1    
    18    8   75 1    
    19    9   10 ar   
    20    9   14 ar   
    21   10   11 ar   
    22   10   76 1    
    23   11   12 ar   
    24   11   48 1    
    25   12   13 ar   
    26   12   77 1    
    27   13   14 ar   
    28   13   15 1    
    29   14   78 1    
    30   15   16 1    
    31   15   79 1    
    32   15   80 1    
    33   16   17 1    
    34   17   18 1    
    35   17   81 1    
    36   17   82 1    
    37   18   19 1    
    38   18   22 1    
    39   18   83 1    
    40   19   20 am   BACKBONE|DICT|INTERRES
    41   19   21 2    
    42   20   84 1    
    43   20   85 1    
    44   22   23 am   BACKBONE|DICT|INTERRES
    45   22   86 1    
    46   23   24 2    
    47   23   25 1    
    48   25   26 1    
    49   25   27 1    
    50   25   87 1    
    51   26   88 1    
    52   26   89 1    
    53   26   90 1    
    54   27   28 am   BACKBONE|DICT|INTERRES
    55   27   91 1    
    56   28   29 2    
    57   28   30 1    
    58   30   31 1    
    59   30   32 1    
    60   30   92 1    
    61   31   93 1    
    62   31   94 1    
    63   31   95 1    
    64   32   33 am   BACKBONE|DICT|INTERRES
    65   32   96 1    
    66   33   34 2    
    67   33   35 1    
    68   35   36 1    
    69   35   37 1    
    70   35   97 1    
    71   36   98 1    
    72   36   99 1    
    73   36  100 1    
    74   37   38 am   BACKBONE|DICT|INTERRES
    75   37  101 1    
    76   38   39 2    
    77   38   40 1    
    78   40   41 1    
    79   40   42 1    
    80   40  102 1    
    81   41  103 1    
    82   41  104 1    
    83   41  105 1    
    84   42   43 am   BACKBONE|DICT|INTERRES
    85   42  106 1    
    86   43   44 2    
    87   43   45 1    
    88   45   46 1    
    89   45   49 1    
    90   45  107 1    
    91   46   47 1    
    92   46  108 1    
    93   46  109 1    
    94   47   48 1    
    95   48  110 1    
    96   48  111 1    
    97   49   50 am   BACKBONE|DICT|INTERRES
    98   49  112 1    
    99   50   51 2    
   100   50   52 1    
   101   52   53 1    
   102   52   54 1    
   103   52  113 1    
   104   53  114 1    
   105   53  115 1    
   106   53  116 1    
   107   54   55 am   BACKBONE|DICT|INTERRES
   108   54  117 1    
   109   55   56 2    
   110   55   57 1    
   111   57   58 1    
   112   57   59 1    
   113   57  118 1    
   114   58  119 1    
   115   58  120 1    
   116   58  121 1    
   117   59   60 am   BACKBONE|DICT|INTERRES
   118   59  122 1    
   119   60   61 2    
   120   60   62 1    
   121   62   63 1    
   122   62   64 1    
   123   62  123 1    
   124   63  124 1    
   125   63  125 1    
   126   63  126 1    
   127   64   65 am   BACKBONE|DICT|INTERRES
   128   64  127 1    
   129   65   66 2    
@<TRIPOS>SUBSTRUCTURE
     1 UNK         1 GROUP             0       ****    0 ROOT    
