@<TRIPOS>MOLECULE
3R134
127   129    1
SMALL
USER_CHARGES


@<TRIPOS>ATOM
      1 CA         35.8072  -47.2828  -53.9035 C.3       0 UNK        -0.1968 
      2 C          34.3308  -47.0921  -53.5953 C.2       0 UNK         0.4852 
      3 O          33.5232  -47.9580  -53.9335 O.2       0 UNK        -0.5359 
      4 N          33.9788  -45.9692  -52.9518 N.am      1 UNK        -0.4300 
      5 CA         32.6096  -45.5274  -52.6380 C.3       1 UNK         0.0863 
      6 C6         32.6212  -44.1311  -51.9574 C.3       11 UNK        -0.0953 
      7 S7         31.2126  -43.0770  -52.4465 S.3       11 UNK        -0.2369 
      8 C8         31.9947  -41.8780  -53.5792 C.3       11 UNK         0.0226 
      9 C9         32.0294  -42.3901  -55.0129 C.ar      11 UNK        -0.0699 
     10 C10        32.9703  -43.3480  -55.4003 C.ar      11 UNK        -0.0804 
     11 C11        32.9791  -43.8520  -56.7038 C.ar      11 UNK        -0.0871 
     12 C12        32.0608  -43.3583  -57.6361 C.ar      11 UNK        -0.1008 
     13 C13        31.1189  -42.3949  -57.2651 C.ar      11 UNK        -0.0735 
     14 C14        31.1137  -41.9085  -55.9540 C.ar      11 UNK        -0.0945 
     15 C15        30.1063  -41.8924  -58.2839 C.3       11 UNK         0.0169 
     16 S16        28.5613  -42.8567  -58.2286 S.3       11 UNK        -0.2669 
     17 C17        27.6713  -41.9996  -56.8817 C.3       11 UNK        -0.0850 
     18 CA         26.2575  -42.5634  -56.5899 C.3       10 UNK         0.0855 
     19 C          25.2403  -42.2779  -57.7358 C.2       10 UNK         0.5543 
     20 N          24.5620  -43.2711  -58.3001 N.am      10 UNK        -0.7343 
     21 O          25.0494  -41.1227  -58.1086 O.2       10 UNK        -0.5027 
     22 N          26.3251  -43.9639  -56.1522 N.am      10 UNK        -0.4495 
     23 C          25.4241  -44.5648  -55.3669 C.2       10 UNK         0.4903 
     24 O          24.4772  -43.9779  -54.8402 O.2       10 UNK        -0.4860 
     25 CA         25.6162  -46.0780  -55.1430 C.3       9 UNK         0.0227 
     26 CB         24.3300  -46.7710  -54.6448 C.3       9 UNK        -0.1964 
     27 N          26.1552  -46.7782  -56.3164 N.am      9 UNK        -0.4231 
     28 C          25.6195  -46.8447  -57.5465 C.2       9 UNK         0.5014 
     29 O          24.5994  -46.2463  -57.8904 O.2       9 UNK        -0.5270 
     30 CA         26.3523  -47.7273  -58.5687 C.3       8 UNK         0.0284 
     31 CB         27.4759  -46.9360  -59.2609 C.3       8 UNK        -0.1977 
     32 N          26.9031  -48.9295  -57.9370 N.am      8 UNK        -0.4342 
     33 C          26.2060  -50.0519  -57.7031 C.2       8 UNK         0.5039 
     34 O          25.0532  -50.2355  -58.0953 O.2       8 UNK        -0.5547 
     35 CA         26.9039  -51.1583  -56.8876 C.3       7 UNK         0.0281 
     36 CB         27.6616  -52.1194  -57.8176 C.3       7 UNK        -0.1963 
     37 N          27.8301  -50.6254  -55.8868 N.am      7 UNK        -0.4444 
     38 C          27.4622  -49.9632  -54.7795 C.2       7 UNK         0.5104 
     39 O          26.2955  -49.8555  -54.4047 O.2       7 UNK        -0.5100 
     40 CA         28.5778  -49.2673  -53.9750 C.3       6 UNK         0.0396 
     41 CB         28.9017  -50.0594  -52.7003 C.3       6 UNK        -0.1801 
     42 N          29.8022  -49.0378  -54.7564 N.am      6 UNK        -0.4747 
     43 C          29.8707  -48.1915  -55.7983 C.2       6 UNK         0.5012 
     44 O          28.9035  -47.5268  -56.1720 O.2       6 UNK        -0.5003 
     45 CA         31.1788  -48.1012  -56.6087 C.3       5 UNK         0.0782 
     46 C46        31.7703  -46.6770  -56.5547 C.3       11 UNK        -0.0868 
     47 S47        33.1296  -46.4419  -57.7489 S.3       11 UNK        -0.2515 
     48 C48        33.9587  -44.9556  -57.0878 C.3       11 UNK         0.0199 
     49 N          32.1511  -49.1246  -56.2176 N.am      5 UNK        -0.4607 
     50 C          32.1607  -50.3677  -56.7135 C.2       4 UNK         0.5031 
     51 O          31.3360  -50.7793  -57.5303 O.2       4 UNK        -0.5119 
     52 CA         33.2547  -51.3242  -56.2065 C.3       4 UNK         0.0263 
     53 CB         34.5054  -51.2162  -57.0933 C.3       4 UNK        -0.1967 
     54 N          33.6407  -51.1335  -54.8040 N.am      4 UNK        -0.4237 
     55 C          32.8116  -51.1980  -53.7531 C.2       3 UNK         0.4908 
     56 O          31.5964  -51.3589  -53.8577 O.2       3 UNK        -0.5102 
     57 CA         33.4208  -51.0613  -52.3512 C.3       3 UNK         0.0241 
     58 CB         34.9637  -51.0561  -52.3212 C.3       3 UNK        -0.1971 
     59 N          32.9221  -49.8273  -51.7505 N.am      3 UNK        -0.4139 
     60 C          32.3173  -49.7317  -50.5590 C.2       2 UNK         0.5016 
     61 O          32.0969  -50.7002  -49.8294 O.2       2 UNK        -0.5319 
     62 CA         31.9027  -48.3271  -50.0757 C.3       2 UNK         0.0286 
     63 CB         32.3377  -48.0885  -48.6178 C.3       2 UNK        -0.1963 
     64 N          32.4679  -47.2606  -50.9072 N.am      2 UNK        -0.4790 
     65 C          31.7916  -46.5537  -51.8224 C.2       1 UNK         0.5024 
     66 O          30.5918  -46.7020  -52.0532 O.2       1 UNK        -0.4888 
     67 H67        35.9319  -47.6445  -54.9252 H         1 UNK         0.0892 
     68 H68        36.2449  -48.0146  -53.2238 H         1 UNK         0.0892 
     69 H69        36.3648  -46.3501  -53.8060 H         1 UNK         0.0892 
     70 H70        34.7095  -45.3296  -52.6737 H         1 UNK         0.3107 
     71 H71        32.1011  -45.4309  -53.5970 H         1 UNK         0.0773 
     72 H72        33.5395  -43.5944  -52.1979 H         1 UNK         0.0680 
     73 H73        32.6288  -44.2168  -50.8688 H         1 UNK         0.0680 
     74 H74        31.4281  -40.9468  -53.5307 H         1 UNK         0.0650 
     75 H75        33.0017  -41.6295  -53.2422 H         1 UNK         0.0650 
     76 H76        33.6829  -43.7171  -54.6775 H         1 UNK         0.1397 
     77 H77        32.0607  -43.7492  -58.6446 H         1 UNK         0.1363 
     78 H78        30.3898  -41.1604  -55.6628 H         1 UNK         0.1355 
     79 H79        29.8955  -40.8339  -58.1234 H         1 UNK         0.0707 
     80 H80        30.5260  -41.9663  -59.2883 H         1 UNK         0.0707 
     81 H81        27.6134  -40.9346  -57.1145 H         1 UNK         0.1034 
     82 H82        28.2691  -42.0715  -55.9732 H         1 UNK         0.1034 
     83 H83        25.8794  -41.9884  -55.7422 H         1 UNK         0.0482 
     84 H84        24.6844  -44.2322  -58.0003 H         1 UNK         0.3460 
     85 H85        23.9059  -43.0596  -59.0345 H         1 UNK         0.3460 
     86 H86        27.0633  -44.5173  -56.5624 H         1 UNK         0.2989 
     87 H87        26.3699  -46.1769  -54.3603 H         1 UNK         0.0559 
     88 H88        23.9964  -46.3467  -53.6971 H         1 UNK         0.0848 
     89 H89        24.4904  -47.8364  -54.4808 H         1 UNK         0.0848 
     90 H90        23.5111  -46.6623  -55.3570 H         1 UNK         0.0848 
     91 H91        27.0637  -47.2156  -56.1800 H         1 UNK         0.3144 
     92 H92        25.6309  -48.0242  -59.3332 H         1 UNK         0.0727 
     93 H93        27.9781  -47.5397  -60.0167 H         1 UNK         0.0790 
     94 H94        28.2303  -46.5863  -58.5557 H         1 UNK         0.0790 
     95 H95        27.0751  -46.0552  -59.7649 H         1 UNK         0.0790 
     96 H96        27.8292  -48.8440  -57.5410 H         1 UNK         0.3215 
     97 H97        26.1284  -51.7246  -56.3667 H         1 UNK         0.0863 
     98 H98        28.0956  -52.9501  -57.2609 H         1 UNK         0.0808 
     99 H99        28.4688  -51.6155  -58.3512 H         1 UNK         0.0808 
    100 H100       26.9924  -52.5468  -58.5655 H         1 UNK         0.0808 
    101 H101       28.8174  -50.6944  -56.0910 H         1 UNK         0.3118 
    102 H102       28.1974  -48.2901  -53.6697 H         1 UNK         0.0546 
    103 H103       28.0299  -50.1141  -52.0472 H         1 UNK         0.0828 
    104 H104       29.7025  -49.5869  -52.1329 H         1 UNK         0.0828 
    105 H105       29.2009  -51.0834  -52.9232 H         1 UNK         0.0828 
    106 H106       30.6101  -49.6034  -54.5178 H         1 UNK         0.3005 
    107 H107       30.8880  -48.2803  -57.6467 H         1 UNK         0.1257 
    108 H108       32.1308  -46.4518  -55.5543 H         1 UNK         0.0775 
    109 H109       31.0033  -45.9328  -56.7798 H         1 UNK         0.0775 
    110 H110       34.5629  -45.2523  -56.2294 H         1 UNK         0.0840 
    111 H111       34.6544  -44.5734  -57.8358 H         1 UNK         0.0840 
    112 H112       32.8246  -48.8533  -55.5057 H         1 UNK         0.2987 
    113 H113       32.8600  -52.3385  -56.2959 H         1 UNK         0.0785 
    114 H114       34.9690  -50.2315  -57.0179 H         1 UNK         0.0798 
    115 H115       34.2552  -51.3786  -58.1428 H         1 UNK         0.0798 
    116 H116       35.2522  -51.9628  -56.8221 H         1 UNK         0.0798 
    117 H117       34.6205  -50.9720  -54.6247 H         1 UNK         0.3079 
    118 H118       33.0757  -51.9294  -51.7861 H         1 UNK         0.0794 
    119 H119       35.3833  -50.2077  -52.8607 H         1 UNK         0.0786 
    120 H120       35.3721  -51.9695  -52.7559 H         1 UNK         0.0786 
    121 H121       35.3301  -51.0032  -51.2959 H         1 UNK         0.0786 
    122 H122       33.0023  -48.9985  -52.3329 H         1 UNK         0.3032 
    123 H123       30.8113  -48.2951  -50.1102 H         1 UNK         0.1094 
    124 H124       33.4198  -48.1613  -48.5024 H         1 UNK         0.0794 
    125 H125       32.0283  -47.1031  -48.2690 H         1 UNK         0.0794 
    126 H126       31.8874  -48.8211  -47.9466 H         1 UNK         0.0794 
    127 H127       33.4567  -47.0813  -50.8002 H         1 UNK         0.3016 
@<TRIPOS>BOND
     1    1    2 1    
     2    1   67 1    
     3    1   68 1    
     4    1   69 1    
     5    2    3 2    
     6    2    4 am   BACKBONE|DICT|INTERRES
     7    4    5 1    
     8    4   70 1    
     9    5    6 1    
    10    5   65 1    
    11    5   71 1    
    12    6    7 1    
    13    6   72 1    
    14    6   73 1    
    15    7    8 1    
    16    8    9 1    
    17    8   74 1    
    18    8   75 1    
    19    9   10 ar   
    20    9   14 ar   
    21   10   11 ar   
    22   10   76 1    
    23   11   12 ar   
    24   11   48 1    
    25   12   13 ar   
    26   12   77 1    
    27   13   14 ar   
    28   13   15 1    
    29   14   78 1    
    30   15   16 1    
    31   15   79 1    
    32   15   80 1    
    33   16   17 1    
    34   17   18 1    
    35   17   81 1    
    36   17   82 1    
    37   18   19 1    
    38   18   22 1    
    39   18   83 1    
    40   19   20 am   BACKBONE|DICT|INTERRES
    41   19   21 2    
    42   20   84 1    
    43   20   85 1    
    44   22   23 am   BACKBONE|DICT|INTERRES
    45   22   86 1    
    46   23   24 2    
    47   23   25 1    
    48   25   26 1    
    49   25   27 1    
    50   25   87 1    
    51   26   88 1    
    52   26   89 1    
    53   26   90 1    
    54   27   28 am   BACKBONE|DICT|INTERRES
    55   27   91 1    
    56   28   29 2    
    57   28   30 1    
    58   30   31 1    
    59   30   32 1    
    60   30   92 1    
    61   31   93 1    
    62   31   94 1    
    63   31   95 1    
    64   32   33 am   BACKBONE|DICT|INTERRES
    65   32   96 1    
    66   33   34 2    
    67   33   35 1    
    68   35   36 1    
    69   35   37 1    
    70   35   97 1    
    71   36   98 1    
    72   36   99 1    
    73   36  100 1    
    74   37   38 am   BACKBONE|DICT|INTERRES
    75   37  101 1    
    76   38   39 2    
    77   38   40 1    
    78   40   41 1    
    79   40   42 1    
    80   40  102 1    
    81   41  103 1    
    82   41  104 1    
    83   41  105 1    
    84   42   43 am   BACKBONE|DICT|INTERRES
    85   42  106 1    
    86   43   44 2    
    87   43   45 1    
    88   45   46 1    
    89   45   49 1    
    90   45  107 1    
    91   46   47 1    
    92   46  108 1    
    93   46  109 1    
    94   47   48 1    
    95   48  110 1    
    96   48  111 1    
    97   49   50 am   BACKBONE|DICT|INTERRES
    98   49  112 1    
    99   50   51 2    
   100   50   52 1    
   101   52   53 1    
   102   52   54 1    
   103   52  113 1    
   104   53  114 1    
   105   53  115 1    
   106   53  116 1    
   107   54   55 am   BACKBONE|DICT|INTERRES
   108   54  117 1    
   109   55   56 2    
   110   55   57 1    
   111   57   58 1    
   112   57   59 1    
   113   57  118 1    
   114   58  119 1    
   115   58  120 1    
   116   58  121 1    
   117   59   60 am   BACKBONE|DICT|INTERRES
   118   59  122 1    
   119   60   61 2    
   120   60   62 1    
   121   62   63 1    
   122   62   64 1    
   123   62  123 1    
   124   63  124 1    
   125   63  125 1    
   126   63  126 1    
   127   64   65 am   BACKBONE|DICT|INTERRES
   128   64  127 1    
   129   65   66 2    
@<TRIPOS>SUBSTRUCTURE
     1 UNK         1 GROUP             0       ****    0 ROOT    
