@<TRIPOS>MOLECULE
3R134
127   129    1
SMALL
USER_CHARGES


@<TRIPOS>ATOM
      1 CA         37.0527  -47.7048  -55.3538 C.3       0 UNK        -0.1968 
      2 C          35.6592  -47.4136  -54.8198 C.2       0 UNK         0.4852 
      3 O          34.7506  -48.2192  -55.0254 O.2       0 UNK        -0.5359 
      4 N          35.4900  -46.2790  -54.1248 N.am      1 UNK        -0.4300 
      5 CA         34.2300  -45.7717  -53.5584 C.3       1 UNK         0.0863 
      6 C6         34.4542  -44.4684  -52.7560 C.3       11 UNK        -0.0953 
      7 S7         35.0063  -43.0987  -53.8240 S.3       11 UNK        -0.2369 
      8 C8         33.8390  -41.7776  -53.3675 C.3       11 UNK         0.0226 
      9 C9         32.4150  -42.0713  -53.8209 C.ar      11 UNK        -0.0699 
     10 C10        31.4360  -42.4407  -52.8916 C.ar      11 UNK        -0.0804 
     11 C11        30.1168  -42.6700  -53.2970 C.ar      11 UNK        -0.0871 
     12 C12        29.7813  -42.5112  -54.6452 C.ar      11 UNK        -0.1008 
     13 C13        30.7536  -42.1587  -55.5859 C.ar      11 UNK        -0.0735 
     14 C14        32.0691  -41.9397  -55.1687 C.ar      11 UNK        -0.0945 
     15 C15        30.3688  -41.9973  -57.0468 C.3       11 UNK         0.0169 
     16 S16        29.9794  -43.6049  -57.8024 S.3       11 UNK        -0.2669 
     17 C17        29.1907  -43.0649  -59.3590 C.3       11 UNK        -0.0850 
     18 CA         27.7095  -42.6074  -59.1855 C.3       10 UNK         0.0855 
     19 C          27.0783  -42.1125  -60.5231 C.2       10 UNK         0.5543 
     20 N          25.7836  -42.2978  -60.7500 N.am      10 UNK        -0.7343 
     21 O          27.7627  -41.5213  -61.3550 O.2       10 UNK        -0.5027 
     22 N          26.8869  -43.5634  -58.4197 N.am      10 UNK        -0.4495 
     23 C          26.5999  -44.8186  -58.7806 C.2       10 UNK         0.4903 
     24 O          26.9409  -45.3334  -59.8496 O.2       10 UNK        -0.4860 
     25 CA         25.7787  -45.6317  -57.7739 C.3       9 UNK         0.0227 
     26 CB         24.2998  -45.2018  -57.7747 C.3       9 UNK        -0.1964 
     27 N          25.8887  -47.0387  -58.1362 N.am      9 UNK        -0.4231 
     28 C          25.7703  -48.0824  -57.3118 C.2       9 UNK         0.5014 
     29 O          25.4821  -47.9810  -56.1180 O.2       9 UNK        -0.5270 
     30 CA         25.9895  -49.4765  -57.9201 C.3       8 UNK         0.0284 
     31 CB         26.6747  -49.4725  -59.3056 C.3       8 UNK        -0.1977 
     32 N          26.7717  -50.2873  -56.9914 N.am      8 UNK        -0.4342 
     33 C          26.6353  -51.6078  -56.8297 C.2       8 UNK         0.5039 
     34 O          25.8037  -52.2889  -57.4327 O.2       8 UNK        -0.5547 
     35 CA         27.5967  -52.3055  -55.8559 C.3       7 UNK         0.0281 
     36 CB         28.8537  -52.7810  -56.6030 C.3       7 UNK        -0.1963 
     37 N          27.9970  -51.4702  -54.7228 N.am      7 UNK        -0.4444 
     38 C          27.2215  -51.2031  -53.6631 C.2       7 UNK         0.5104 
     39 O          26.0563  -51.5855  -53.5510 O.2       7 UNK        -0.5100 
     40 CA         27.8613  -50.3909  -52.5265 C.3       6 UNK         0.0396 
     41 CB         28.8395  -51.2577  -51.7166 C.3       6 UNK        -0.1801 
     42 N          28.5593  -49.2138  -53.0407 N.am      6 UNK        -0.4747 
     43 C          27.9813  -48.0221  -53.2545 C.2       6 UNK         0.5012 
     44 O          26.8127  -47.7753  -52.9556 O.2       6 UNK        -0.5003 
     45 CA         28.8482  -46.9181  -53.9022 C.3       5 UNK         0.0782 
     46 C46        29.2548  -45.8230  -52.8796 C.3       11 UNK        -0.0868 
     47 S47        28.0255  -44.4808  -52.7710 S.3       11 UNK        -0.2515 
     48 C48        29.0586  -43.0604  -52.2675 C.3       11 UNK         0.0199 
     49 N          30.0244  -47.4594  -54.5907 N.am      5 UNK        -0.4607 
     50 C          29.9785  -48.0976  -55.7667 C.2       4 UNK         0.5031 
     51 O          28.9367  -48.3438  -56.3734 O.2       4 UNK        -0.5119 
     52 CA         31.3162  -48.5754  -56.3486 C.3       4 UNK         0.0263 
     53 CB         32.0828  -47.3971  -56.9713 C.3       4 UNK        -0.1967 
     54 N          32.1754  -49.2674  -55.3834 N.am      4 UNK        -0.4237 
     55 C          31.8435  -50.3771  -54.7072 C.2       3 UNK         0.4908 
     56 O          30.7246  -50.8861  -54.7319 O.2       3 UNK        -0.5102 
     57 CA         32.9358  -51.0204  -53.8456 C.3       3 UNK         0.0241 
     58 CB         34.0308  -51.6547  -54.7197 C.3       3 UNK        -0.1971 
     59 N          33.5241  -50.0277  -52.9517 N.am      3 UNK        -0.4139 
     60 C          33.0858  -49.7779  -51.7105 C.2       2 UNK         0.5016 
     61 O          32.2103  -50.4335  -51.1453 O.2       2 UNK        -0.5319 
     62 CA         33.7202  -48.5874  -50.9682 C.3       2 UNK         0.0286 
     63 CB         34.8491  -49.0702  -50.0433 C.3       2 UNK        -0.1963 
     64 N          34.2387  -47.5398  -51.8536 N.am      2 UNK        -0.4790 
     65 C          33.4883  -46.8003  -52.6837 C.2       1 UNK         0.5024 
     66 O          32.2704  -46.9292  -52.8036 O.2       1 UNK        -0.4888 
     67 H67        37.0252  -47.7905  -56.4396 H         1 UNK         0.0892 
     68 H68        37.7632  -46.9209  -55.0925 H         1 UNK         0.0892 
     69 H69        37.4198  -48.6465  -54.9470 H         1 UNK         0.0892 
     70 H70        36.2815  -45.6627  -54.0049 H         1 UNK         0.3107 
     71 H71        33.5713  -45.5457  -54.3993 H         1 UNK         0.0773 
     72 H72        35.2015  -44.6180  -51.9745 H         1 UNK         0.0680 
     73 H73        33.5400  -44.1729  -52.2397 H         1 UNK         0.0680 
     74 H74        33.8794  -41.6194  -52.2886 H         1 UNK         0.0650 
     75 H75        34.1737  -40.8444  -53.8227 H         1 UNK         0.0650 
     76 H76        31.7009  -42.5402  -51.8478 H         1 UNK         0.1397 
     77 H77        28.7626  -42.6759  -54.9689 H         1 UNK         0.1363 
     78 H78        32.8250  -41.6576  -55.8890 H         1 UNK         0.1355 
     79 H79        31.1693  -41.5185  -57.6130 H         1 UNK         0.0707 
     80 H80        29.5050  -41.3352  -57.1093 H         1 UNK         0.0707 
     81 H81        29.2470  -43.8920  -60.0686 H         1 UNK         0.1034 
     82 H82        29.7929  -42.2631  -59.7906 H         1 UNK         0.1034 
     83 H83        27.7272  -41.7105  -58.5670 H         1 UNK         0.0482 
     84 H84        25.3794  -41.9658  -61.6115 H         1 UNK         0.3460 
     85 H85        25.2112  -42.7746  -60.0724 H         1 UNK         0.3460 
     86 H86        26.5437  -43.2243  -57.5328 H         1 UNK         0.2989 
     87 H87        26.2085  -45.4812  -56.7809 H         1 UNK         0.0559 
     88 H88        23.8435  -45.3319  -58.7569 H         1 UNK         0.0848 
     89 H89        24.1919  -44.1522  -57.4992 H         1 UNK         0.0848 
     90 H90        23.7183  -45.7819  -57.0578 H         1 UNK         0.0848 
     91 H91        26.1917  -47.1894  -59.0912 H         1 UNK         0.3144 
     92 H92        24.9946  -49.9129  -58.0298 H         1 UNK         0.0727 
     93 H93        27.6542  -48.9928  -59.2688 H         1 UNK         0.0790 
     94 H94        26.0710  -48.9543  -60.0516 H         1 UNK         0.0790 
     95 H95        26.8206  -50.4880  -59.6742 H         1 UNK         0.0790 
     96 H96        27.4672  -49.7771  -56.4534 H         1 UNK         0.3215 
     97 H97        27.0841  -53.1867  -55.4637 H         1 UNK         0.0863 
     98 H98        29.4179  -51.9431  -57.0149 H         1 UNK         0.0808 
     99 H99        28.5906  -53.4379  -57.4332 H         1 UNK         0.0808 
    100 H100       29.5190  -53.3400  -55.9448 H         1 UNK         0.0808 
    101 H101       28.9656  -51.1506  -54.7186 H         1 UNK         0.3118 
    102 H102       27.0652  -50.0744  -51.8490 H         1 UNK         0.0546 
    103 H103       29.2524  -50.7045  -50.8728 H         1 UNK         0.0828 
    104 H104       29.6761  -51.6090  -52.3215 H         1 UNK         0.0828 
    105 H105       28.3377  -52.1378  -51.3126 H         1 UNK         0.0828 
    106 H106       29.5150  -49.3449  -53.3438 H         1 UNK         0.3005 
    107 H107       28.2245  -46.4566  -54.6725 H         1 UNK         0.1257 
    108 H108       30.1968  -45.3677  -53.1865 H         1 UNK         0.0775 
    109 H109       29.4410  -46.2364  -51.8863 H         1 UNK         0.0775 
    110 H110       28.4096  -42.2011  -52.0944 H         1 UNK         0.0840 
    111 H111       29.5206  -43.2940  -51.3069 H         1 UNK         0.0840 
    112 H112       30.9167  -47.3269  -54.1224 H         1 UNK         0.2987 
    113 H113       31.0878  -49.2884  -57.1435 H         1 UNK         0.0785 
    114 H114       32.9870  -47.7353  -57.4776 H         1 UNK         0.0798 
    115 H115       31.4705  -46.8779  -57.7103 H         1 UNK         0.0798 
    116 H116       32.3762  -46.6641  -56.2194 H         1 UNK         0.0798 
    117 H117       33.1230  -48.9034  -55.2822 H         1 UNK         0.3079 
    118 H118       32.4744  -51.8194  -53.2608 H         1 UNK         0.0794 
    119 H119       34.7764  -52.1631  -54.1083 H         1 UNK         0.0786 
    120 H120       34.5501  -50.9158  -55.3311 H         1 UNK         0.0786 
    121 H121       33.6060  -52.3974  -55.3963 H         1 UNK         0.0786 
    122 H122       34.2046  -49.3982  -53.3613 H         1 UNK         0.3032 
    123 H123       32.9360  -48.1422  -50.3515 H         1 UNK         0.1094 
    124 H124       34.4877  -49.8339  -49.3529 H         1 UNK         0.0794 
    125 H125       35.6752  -49.5055  -50.6070 H         1 UNK         0.0794 
    126 H126       35.2456  -48.2535  -49.4398 H         1 UNK         0.0794 
    127 H127       35.2352  -47.3758  -51.8342 H         1 UNK         0.3016 
@<TRIPOS>BOND
     1    1    2 1    
     2    1   67 1    
     3    1   68 1    
     4    1   69 1    
     5    2    3 2    
     6    2    4 am   BACKBONE|DICT|INTERRES
     7    4    5 1    
     8    4   70 1    
     9    5    6 1    
    10    5   65 1    
    11    5   71 1    
    12    6    7 1    
    13    6   72 1    
    14    6   73 1    
    15    7    8 1    
    16    8    9 1    
    17    8   74 1    
    18    8   75 1    
    19    9   10 ar   
    20    9   14 ar   
    21   10   11 ar   
    22   10   76 1    
    23   11   12 ar   
    24   11   48 1    
    25   12   13 ar   
    26   12   77 1    
    27   13   14 ar   
    28   13   15 1    
    29   14   78 1    
    30   15   16 1    
    31   15   79 1    
    32   15   80 1    
    33   16   17 1    
    34   17   18 1    
    35   17   81 1    
    36   17   82 1    
    37   18   19 1    
    38   18   22 1    
    39   18   83 1    
    40   19   20 am   BACKBONE|DICT|INTERRES
    41   19   21 2    
    42   20   84 1    
    43   20   85 1    
    44   22   23 am   BACKBONE|DICT|INTERRES
    45   22   86 1    
    46   23   24 2    
    47   23   25 1    
    48   25   26 1    
    49   25   27 1    
    50   25   87 1    
    51   26   88 1    
    52   26   89 1    
    53   26   90 1    
    54   27   28 am   BACKBONE|DICT|INTERRES
    55   27   91 1    
    56   28   29 2    
    57   28   30 1    
    58   30   31 1    
    59   30   32 1    
    60   30   92 1    
    61   31   93 1    
    62   31   94 1    
    63   31   95 1    
    64   32   33 am   BACKBONE|DICT|INTERRES
    65   32   96 1    
    66   33   34 2    
    67   33   35 1    
    68   35   36 1    
    69   35   37 1    
    70   35   97 1    
    71   36   98 1    
    72   36   99 1    
    73   36  100 1    
    74   37   38 am   BACKBONE|DICT|INTERRES
    75   37  101 1    
    76   38   39 2    
    77   38   40 1    
    78   40   41 1    
    79   40   42 1    
    80   40  102 1    
    81   41  103 1    
    82   41  104 1    
    83   41  105 1    
    84   42   43 am   BACKBONE|DICT|INTERRES
    85   42  106 1    
    86   43   44 2    
    87   43   45 1    
    88   45   46 1    
    89   45   49 1    
    90   45  107 1    
    91   46   47 1    
    92   46  108 1    
    93   46  109 1    
    94   47   48 1    
    95   48  110 1    
    96   48  111 1    
    97   49   50 am   BACKBONE|DICT|INTERRES
    98   49  112 1    
    99   50   51 2    
   100   50   52 1    
   101   52   53 1    
   102   52   54 1    
   103   52  113 1    
   104   53  114 1    
   105   53  115 1    
   106   53  116 1    
   107   54   55 am   BACKBONE|DICT|INTERRES
   108   54  117 1    
   109   55   56 2    
   110   55   57 1    
   111   57   58 1    
   112   57   59 1    
   113   57  118 1    
   114   58  119 1    
   115   58  120 1    
   116   58  121 1    
   117   59   60 am   BACKBONE|DICT|INTERRES
   118   59  122 1    
   119   60   61 2    
   120   60   62 1    
   121   62   63 1    
   122   62   64 1    
   123   62  123 1    
   124   63  124 1    
   125   63  125 1    
   126   63  126 1    
   127   64   65 am   BACKBONE|DICT|INTERRES
   128   64  127 1    
   129   65   66 2    
@<TRIPOS>SUBSTRUCTURE
     1 UNK         1 GROUP             0       ****    0 ROOT    
