@<TRIPOS>MOLECULE
3R134
127   129    1
SMALL
USER_CHARGES


@<TRIPOS>ATOM
      1 CA         38.5286  -44.7661  -54.8576 C.3       0 UNK        -0.1968 
      2 C          37.1891  -45.4460  -54.6134 C.2       0 UNK         0.4852 
      3 O          37.1383  -46.4414  -53.8895 O.2       0 UNK        -0.5359 
      4 N          36.1152  -44.9106  -55.2124 N.am      1 UNK        -0.4300 
      5 CA         34.7320  -45.4026  -55.1432 C.3       1 UNK         0.0863 
      6 C6         34.0942  -45.3165  -53.7214 C.3       11 UNK        -0.0953 
      7 S7         34.3239  -43.7169  -52.8700 S.3       11 UNK        -0.2369 
      8 C8         33.2953  -42.5715  -53.8445 C.3       11 UNK         0.0226 
      9 C9         31.8148  -42.9312  -53.8484 C.ar      11 UNK        -0.0699 
     10 C10        31.1073  -43.0684  -52.6487 C.ar      11 UNK        -0.0804 
     11 C11        29.7406  -43.3652  -52.6593 C.ar      11 UNK        -0.0871 
     12 C12        29.0817  -43.5156  -53.8824 C.ar      11 UNK        -0.1008 
     13 C13        29.7751  -43.3797  -55.0876 C.ar      11 UNK        -0.0735 
     14 C14        31.1417  -43.0890  -55.0633 C.ar      11 UNK        -0.0945 
     15 C15        29.0651  -43.5848  -56.4173 C.3       11 UNK         0.0169 
     16 S16        27.9179  -42.2394  -56.8295 S.3       11 UNK        -0.2669 
     17 C17        26.3242  -42.9515  -56.2860 C.3       11 UNK        -0.0850 
     18 CA         25.4940  -43.6261  -57.4104 C.3       10 UNK         0.0855 
     19 C          25.0294  -42.6263  -58.5094 C.2       10 UNK         0.5543 
     20 N          24.0919  -41.7457  -58.1846 N.am      10 UNK        -0.7343 
     21 O          25.5155  -42.6251  -59.6394 O.2       10 UNK        -0.5027 
     22 N          26.1543  -44.8284  -57.9486 N.am      10 UNK        -0.4495 
     23 C          25.5067  -45.7961  -58.6083 C.2       10 UNK         0.4903 
     24 O          24.2838  -45.8090  -58.7585 O.2       10 UNK        -0.4860 
     25 CA         26.3180  -46.9639  -59.1936 C.3       9 UNK         0.0227 
     26 CB         26.6310  -46.7345  -60.6858 C.3       9 UNK        -0.1964 
     27 N          27.5095  -47.3641  -58.4322 N.am      9 UNK        -0.4231 
     28 C          28.7152  -46.7800  -58.3592 C.2       9 UNK         0.5014 
     29 O          28.9649  -45.6887  -58.8703 O.2       9 UNK        -0.5270 
     30 CA         29.8411  -47.5270  -57.6018 C.3       8 UNK         0.0284 
     31 CB         30.5515  -46.6243  -56.5775 C.3       8 UNK        -0.1977 
     32 N          29.3909  -48.7407  -56.9178 N.am      8 UNK        -0.4342 
     33 C          29.1256  -49.9178  -57.4996 C.2       8 UNK         0.5039 
     34 O          29.3273  -50.1588  -58.6894 O.2       8 UNK        -0.5547 
     35 CA         28.4535  -50.9791  -56.6117 C.3       7 UNK         0.0281 
     36 CB         29.5036  -51.8730  -55.9313 C.3       7 UNK        -0.1963 
     37 N          27.5708  -50.3774  -55.6032 N.am      7 UNK        -0.4444 
     38 C          26.4189  -49.7481  -55.8847 C.2       7 UNK         0.5104 
     39 O          25.9581  -49.6499  -57.0214 O.2       7 UNK        -0.5100 
     40 CA         25.6775  -49.0816  -54.7128 C.3       6 UNK         0.0396 
     41 CB         24.7814  -50.1009  -53.9922 C.3       6 UNK        -0.1801 
     42 N          26.5888  -48.4612  -53.7485 N.am      6 UNK        -0.4747 
     43 C          27.3040  -47.3483  -53.9782 C.2       6 UNK         0.5012 
     44 O          27.2201  -46.6810  -55.0089 O.2       6 UNK        -0.5003 
     45 CA         28.3185  -46.9381  -52.8886 C.3       5 UNK         0.0782 
     46 C46        27.6701  -45.9650  -51.8753 C.3       11 UNK        -0.0868 
     47 S47        28.9079  -45.2195  -50.7593 S.3       11 UNK        -0.2515 
     48 C48        28.9720  -43.4970  -51.3514 C.3       11 UNK         0.0199 
     49 N          28.9188  -48.1005  -52.2179 N.am      5 UNK        -0.4607 
     50 C          29.6584  -49.0323  -52.8282 C.2       4 UNK         0.5031 
     51 O          29.9298  -49.0107  -54.0323 O.2       4 UNK        -0.5119 
     52 CA         30.1084  -50.2195  -51.9716 C.3       4 UNK         0.0263 
     53 CB         28.9543  -51.2209  -51.7725 C.3       4 UNK        -0.1967 
     54 N          31.2186  -50.8639  -52.6590 N.am      4 UNK        -0.4237 
     55 C          32.1289  -51.6825  -52.1212 C.2       3 UNK         0.4908 
     56 O          32.1004  -52.0654  -50.9509 O.2       3 UNK        -0.5102 
     57 CA         33.2755  -52.1537  -53.0406 C.3       3 UNK         0.0241 
     58 CB         32.9925  -53.5743  -53.5571 C.3       3 UNK        -0.1971 
     59 N          33.5355  -51.2711  -54.1866 N.am      3 UNK        -0.4139 
     60 C          33.9352  -49.9945  -54.0975 C.2       2 UNK         0.5016 
     61 O          34.1671  -49.4272  -53.0256 O.2       2 UNK        -0.5319 
     62 CA         34.0617  -49.2087  -55.4131 C.3       2 UNK         0.0286 
     63 CB         32.9071  -49.4987  -56.3957 C.3       2 UNK        -0.1963 
     64 N          34.1048  -47.7905  -55.0674 N.am      2 UNK        -0.4790 
     65 C          34.6306  -46.8024  -55.7980 C.2       1 UNK         0.5024 
     66 O          35.0429  -46.9571  -56.9496 O.2       1 UNK        -0.4888 
     67 H67        38.9590  -44.4365  -53.9124 H         1 UNK         0.0892 
     68 H68        39.2238  -45.4635  -55.3242 H         1 UNK         0.0892 
     69 H69        38.4337  -43.8963  -55.5075 H         1 UNK         0.0892 
     70 H70        36.2479  -44.1101  -55.8140 H         1 UNK         0.3107 
     71 H71        34.1531  -44.7448  -55.7927 H         1 UNK         0.0773 
     72 H72        33.0244  -45.5286  -53.7700 H         1 UNK         0.0680 
     73 H73        34.5257  -46.0715  -53.0620 H         1 UNK         0.0680 
     74 H74        33.6901  -42.5219  -54.8601 H         1 UNK         0.0650 
     75 H75        33.4064  -41.5697  -53.4280 H         1 UNK         0.0650 
     76 H76        31.6233  -42.9414  -51.7067 H         1 UNK         0.1397 
     77 H77        28.0267  -43.7397  -53.8963 H         1 UNK         0.1363 
     78 H78        31.6817  -42.9815  -55.9940 H         1 UNK         0.1355 
     79 H79        28.5279  -44.5319  -56.3942 H         1 UNK         0.0707 
     80 H80        29.7912  -43.6622  -57.2274 H         1 UNK         0.0707 
     81 H81        26.4907  -43.6755  -55.4889 H         1 UNK         0.1034 
     82 H82        25.7445  -42.1512  -55.8230 H         1 UNK         0.1034 
     83 H83        24.5786  -43.9784  -56.9300 H         1 UNK         0.0482 
     84 H84        23.6812  -41.7326  -57.2641 H         1 UNK         0.3460 
     85 H85        23.7822  -41.0836  -58.8789 H         1 UNK         0.3460 
     86 H86        27.1659  -44.8430  -57.9433 H         1 UNK         0.2989 
     87 H87        25.6618  -47.8342  -59.1428 H         1 UNK         0.0559 
     88 H88        25.7122  -46.5901  -61.2557 H         1 UNK         0.0848 
     89 H89        27.1507  -47.5884  -61.1201 H         1 UNK         0.0848 
     90 H90        27.2462  -45.8482  -60.8434 H         1 UNK         0.0848 
     91 H91        27.3895  -48.2292  -57.9198 H         1 UNK         0.3144 
     92 H92        30.5785  -47.8162  -58.3532 H         1 UNK         0.0727 
     93 H93        29.8767  -46.3093  -55.7832 H         1 UNK         0.0790 
     94 H94        30.9573  -45.7314  -57.0526 H         1 UNK         0.0790 
     95 H95        31.3885  -47.1325  -56.1034 H         1 UNK         0.0790 
     96 H96        29.2634  -48.6708  -55.9129 H         1 UNK         0.3215 
     97 H97        27.8404  -51.6102  -57.2592 H         1 UNK         0.0863 
     98 H98        29.0359  -52.6390  -55.3127 H         1 UNK         0.0808 
     99 H99        30.1823  -51.2997  -55.3025 H         1 UNK         0.0808 
    100 H100       30.1130  -52.3869  -56.6759 H         1 UNK         0.0808 
    101 H101       27.9019  -50.3725  -54.6506 H         1 UNK         0.3118 
    102 H102       25.0368  -48.2997  -55.1269 H         1 UNK         0.0546 
    103 H103       25.3620  -50.9039  -53.5363 H         1 UNK         0.0828 
    104 H104       24.0793  -50.5621  -54.6884 H         1 UNK         0.0828 
    105 H105       24.1912  -49.6259  -53.2085 H         1 UNK         0.0828 
    106 H106       26.7107  -48.9325  -52.8639 H         1 UNK         0.3005 
    107 H107       29.1251  -46.4100  -53.4027 H         1 UNK         0.1257 
    108 H108       26.9324  -46.4880  -51.2639 H         1 UNK         0.0775 
    109 H109       27.1182  -45.1732  -52.3832 H         1 UNK         0.0775 
    110 H110       27.9603  -43.1031  -51.4615 H         1 UNK         0.0840 
    111 H111       29.4466  -42.8846  -50.5831 H         1 UNK         0.0840 
    112 H112       28.7508  -48.1749  -51.2248 H         1 UNK         0.2987 
    113 H113       30.4531  -49.8447  -51.0055 H         1 UNK         0.0785 
    114 H114       28.1014  -50.7514  -51.2812 H         1 UNK         0.0798 
    115 H115       29.2607  -52.0584  -51.1455 H         1 UNK         0.0798 
    116 H116       28.6052  -51.6296  -52.7214 H         1 UNK         0.0798 
    117 H117       31.3368  -50.5489  -53.6132 H         1 UNK         0.3079 
    118 H118       34.1829  -52.1828  -52.4337 H         1 UNK         0.0794 
    119 H119       33.8322  -53.9631  -54.1336 H         1 UNK         0.0786 
    120 H120       32.1050  -53.6043  -54.1909 H         1 UNK         0.0786 
    121 H121       32.8244  -54.2647  -52.7292 H         1 UNK         0.0786 
    122 H122       33.3778  -51.6654  -55.1027 H         1 UNK         0.3032 
    123 H123       35.0119  -49.4862  -55.8748 H         1 UNK         0.1094 
    124 H124       31.9367  -49.3980  -55.9108 H         1 UNK         0.0794 
    125 H125       32.9252  -48.8223  -57.2503 H         1 UNK         0.0794 
    126 H126       32.9688  -50.5102  -56.7976 H         1 UNK         0.0794 
    127 H127       33.8733  -47.6134  -54.0969 H         1 UNK         0.3016 
@<TRIPOS>BOND
     1    1    2 1    
     2    1   67 1    
     3    1   68 1    
     4    1   69 1    
     5    2    3 2    
     6    2    4 am   BACKBONE|DICT|INTERRES
     7    4    5 1    
     8    4   70 1    
     9    5    6 1    
    10    5   65 1    
    11    5   71 1    
    12    6    7 1    
    13    6   72 1    
    14    6   73 1    
    15    7    8 1    
    16    8    9 1    
    17    8   74 1    
    18    8   75 1    
    19    9   10 ar   
    20    9   14 ar   
    21   10   11 ar   
    22   10   76 1    
    23   11   12 ar   
    24   11   48 1    
    25   12   13 ar   
    26   12   77 1    
    27   13   14 ar   
    28   13   15 1    
    29   14   78 1    
    30   15   16 1    
    31   15   79 1    
    32   15   80 1    
    33   16   17 1    
    34   17   18 1    
    35   17   81 1    
    36   17   82 1    
    37   18   19 1    
    38   18   22 1    
    39   18   83 1    
    40   19   20 am   BACKBONE|DICT|INTERRES
    41   19   21 2    
    42   20   84 1    
    43   20   85 1    
    44   22   23 am   BACKBONE|DICT|INTERRES
    45   22   86 1    
    46   23   24 2    
    47   23   25 1    
    48   25   26 1    
    49   25   27 1    
    50   25   87 1    
    51   26   88 1    
    52   26   89 1    
    53   26   90 1    
    54   27   28 am   BACKBONE|DICT|INTERRES
    55   27   91 1    
    56   28   29 2    
    57   28   30 1    
    58   30   31 1    
    59   30   32 1    
    60   30   92 1    
    61   31   93 1    
    62   31   94 1    
    63   31   95 1    
    64   32   33 am   BACKBONE|DICT|INTERRES
    65   32   96 1    
    66   33   34 2    
    67   33   35 1    
    68   35   36 1    
    69   35   37 1    
    70   35   97 1    
    71   36   98 1    
    72   36   99 1    
    73   36  100 1    
    74   37   38 am   BACKBONE|DICT|INTERRES
    75   37  101 1    
    76   38   39 2    
    77   38   40 1    
    78   40   41 1    
    79   40   42 1    
    80   40  102 1    
    81   41  103 1    
    82   41  104 1    
    83   41  105 1    
    84   42   43 am   BACKBONE|DICT|INTERRES
    85   42  106 1    
    86   43   44 2    
    87   43   45 1    
    88   45   46 1    
    89   45   49 1    
    90   45  107 1    
    91   46   47 1    
    92   46  108 1    
    93   46  109 1    
    94   47   48 1    
    95   48  110 1    
    96   48  111 1    
    97   49   50 am   BACKBONE|DICT|INTERRES
    98   49  112 1    
    99   50   51 2    
   100   50   52 1    
   101   52   53 1    
   102   52   54 1    
   103   52  113 1    
   104   53  114 1    
   105   53  115 1    
   106   53  116 1    
   107   54   55 am   BACKBONE|DICT|INTERRES
   108   54  117 1    
   109   55   56 2    
   110   55   57 1    
   111   57   58 1    
   112   57   59 1    
   113   57  118 1    
   114   58  119 1    
   115   58  120 1    
   116   58  121 1    
   117   59   60 am   BACKBONE|DICT|INTERRES
   118   59  122 1    
   119   60   61 2    
   120   60   62 1    
   121   62   63 1    
   122   62   64 1    
   123   62  123 1    
   124   63  124 1    
   125   63  125 1    
   126   63  126 1    
   127   64   65 am   BACKBONE|DICT|INTERRES
   128   64  127 1    
   129   65   66 2    
@<TRIPOS>SUBSTRUCTURE
     1 UNK         1 GROUP             0       ****    0 ROOT    
