@<TRIPOS>MOLECULE
3R134
127   129    1
SMALL
USER_CHARGES


@<TRIPOS>ATOM
      1 CA         33.9961  -47.1218  -57.8155 C.3       0 UNK        -0.1968 
      2 C          34.6161  -46.3601  -56.6535 C.2       0 UNK         0.4852 
      3 O          35.8125  -46.0679  -56.6838 O.2       0 UNK        -0.5359 
      4 N          33.8158  -46.0671  -55.6198 N.am      1 UNK        -0.4300 
      5 CA         34.1376  -45.3500  -54.3743 C.3       1 UNK         0.0863 
      6 C6         34.6666  -43.9047  -54.5686 C.3       11 UNK        -0.0953 
      7 S7         33.4822  -42.8160  -55.4284 S.3       11 UNK        -0.2369 
      8 C8         32.7563  -41.8844  -54.0405 C.3       11 UNK         0.0226 
      9 C9         31.6257  -42.6580  -53.3785 C.ar      11 UNK        -0.0699 
     10 C10        31.8861  -43.5468  -52.3310 C.ar      11 UNK        -0.0804 
     11 C11        30.8493  -44.2821  -51.7476 C.ar      11 UNK        -0.0871 
     12 C12        29.5379  -44.0917  -52.1933 C.ar      11 UNK        -0.1008 
     13 C13        29.2647  -43.1991  -53.2339 C.ar      11 UNK        -0.0735 
     14 C14        30.3120  -42.4848  -53.8217 C.ar      11 UNK        -0.0945 
     15 C15        27.8374  -43.0143  -53.7242 C.3       11 UNK         0.0169 
     16 S16        27.3238  -44.3945  -54.7902 S.3       11 UNK        -0.2669 
     17 C17        28.2363  -44.0567  -56.3370 C.3       11 UNK        -0.0850 
     18 CA         27.2945  -43.8260  -57.5481 C.3       10 UNK         0.0855 
     19 C          28.1193  -43.4738  -58.8223 C.2       10 UNK         0.5543 
     20 N          28.1499  -44.3073  -59.8568 N.am      10 UNK        -0.7343 
     21 O          28.7437  -42.4172  -58.8699 O.2       10 UNK        -0.5027 
     22 N          26.3660  -44.9516  -57.7150 N.am      10 UNK        -0.4495 
     23 C          25.2659  -44.9639  -58.4767 C.2       10 UNK         0.4903 
     24 O          24.8216  -43.9731  -59.0584 O.2       10 UNK        -0.4860 
     25 CA         24.5582  -46.3287  -58.6130 C.3       9 UNK         0.0227 
     26 CB         23.7510  -46.4541  -59.9224 C.3       9 UNK        -0.1964 
     27 N          25.4746  -47.4690  -58.4463 N.am      9 UNK        -0.4231 
     28 C          26.5558  -47.7553  -59.1931 C.2       9 UNK         0.5014 
     29 O          26.8861  -47.0937  -60.1791 O.2       9 UNK        -0.5270 
     30 CA         27.4696  -48.9160  -58.7459 C.3       8 UNK         0.0284 
     31 CB         28.9330  -48.4450  -58.6546 C.3       8 UNK        -0.1977 
     32 N          27.0868  -49.5142  -57.4625 N.am      8 UNK        -0.4342 
     33 C          26.0983  -50.4031  -57.2946 C.2       8 UNK         0.5039 
     34 O          25.4311  -50.8648  -58.2206 O.2       8 UNK        -0.5547 
     35 CA         25.7616  -50.8106  -55.8489 C.3       7 UNK         0.0281 
     36 CB         26.6422  -51.9867  -55.3987 C.3       7 UNK        -0.1963 
     37 N          25.8752  -49.7149  -54.8793 N.am      7 UNK        -0.4444 
     38 C          25.1893  -48.5643  -54.9065 C.2       7 UNK         0.5104 
     39 O          24.3795  -48.2812  -55.7888 O.2       7 UNK        -0.5100 
     40 CA         25.4678  -47.5337  -53.7938 C.3       6 UNK         0.0396 
     41 CB         24.5969  -47.8005  -52.5514 C.3       6 UNK        -0.1801 
     42 N          26.8908  -47.3821  -53.4512 N.am      6 UNK        -0.4747 
     43 C          27.7051  -48.2675  -52.8611 C.2       6 UNK         0.5012 
     44 O          27.3304  -49.3575  -52.4215 O.2       6 UNK        -0.5003 
     45 CA         29.2073  -47.9167  -52.8204 C.3       5 UNK         0.0782 
     46 C46        29.6374  -47.5669  -51.3755 C.3       11 UNK        -0.0868 
     47 S47        31.3603  -46.9715  -51.2787 S.3       11 UNK        -0.2515 
     48 C48        31.1524  -45.2771  -50.6363 C.3       11 UNK         0.0199 
     49 N          29.9930  -49.0292  -53.3715 N.am      5 UNK        -0.4607 
     50 C          29.8451  -49.5493  -54.5987 C.2       4 UNK         0.5031 
     51 O          29.0917  -49.0735  -55.4513 O.2       4 UNK        -0.5119 
     52 CA         30.6253  -50.8445  -54.9035 C.3       4 UNK         0.0263 
     53 CB         30.7468  -51.1259  -56.4165 C.3       4 UNK        -0.1967 
     54 N          31.9382  -50.9308  -54.2496 N.am      4 UNK        -0.4237 
     55 C          32.9842  -50.1157  -54.4405 C.2       3 UNK         0.4908 
     56 O          32.9674  -49.1177  -55.1676 O.2       3 UNK        -0.5102 
     57 CA         34.2781  -50.5021  -53.7113 C.3       3 UNK         0.0241 
     58 CB         34.9331  -51.7421  -54.3497 C.3       3 UNK        -0.1971 
     59 N          35.1844  -49.3665  -53.7909 N.am      3 UNK        -0.4139 
     60 C          36.2146  -49.0895  -52.9855 C.2       2 UNK         0.5016 
     61 O          36.5945  -49.8251  -52.0736 O.2       2 UNK        -0.5319 
     62 CA         36.9391  -47.7532  -53.2386 C.3       2 UNK         0.0286 
     63 CB         38.2296  -47.9821  -54.0415 C.3       2 UNK        -0.1963 
     64 N          36.0959  -46.7887  -53.9531 N.am      2 UNK        -0.4790 
     65 C          35.0514  -46.1436  -53.4186 C.2       1 UNK         0.5024 
     66 O          34.7806  -46.1793  -52.2185 O.2       1 UNK        -0.4888 
     67 H67        34.0486  -46.5263  -58.7264 H         1 UNK         0.0892 
     68 H68        34.5361  -48.0534  -57.9826 H         1 UNK         0.0892 
     69 H69        32.9509  -47.3694  -57.6288 H         1 UNK         0.0892 
     70 H70        32.8659  -46.4108  -55.6564 H         1 UNK         0.3107 
     71 H71        33.1791  -45.2860  -53.8614 H         1 UNK         0.0773 
     72 H72        35.5961  -43.9093  -55.1398 H         1 UNK         0.0680 
     73 H73        34.9188  -43.4559  -53.6062 H         1 UNK         0.0680 
     74 H74        32.3768  -40.9359  -54.4236 H         1 UNK         0.0650 
     75 H75        33.5245  -41.6247  -53.3109 H         1 UNK         0.0650 
     76 H76        32.9016  -43.6851  -51.9852 H         1 UNK         0.1397 
     77 H77        28.7264  -44.6440  -51.7410 H         1 UNK         0.1363 
     78 H78        30.1076  -41.7961  -54.6300 H         1 UNK         0.1355 
     79 H79        27.1641  -42.9614  -52.8673 H         1 UNK         0.0707 
     80 H80        27.7233  -42.0709  -54.2608 H         1 UNK         0.0707 
     81 H81        28.8833  -43.1900  -56.1966 H         1 UNK         0.1034 
     82 H82        28.9050  -44.8986  -56.5270 H         1 UNK         0.1034 
     83 H83        26.6878  -42.9450  -57.3300 H         1 UNK         0.0482 
     84 H84        27.6357  -45.1806  -59.8447 H         1 UNK         0.3460 
     85 H85        28.6875  -44.0571  -60.6711 H         1 UNK         0.3460 
     86 H86        26.6370  -45.8106  -57.2629 H         1 UNK         0.2989 
     87 H87        23.8513  -46.3850  -57.7843 H         1 UNK         0.0559 
     88 H88        24.3833  -46.3330  -60.8025 H         1 UNK         0.0848 
     89 H89        22.9721  -45.6926  -59.9765 H         1 UNK         0.0848 
     90 H90        23.2587  -47.4239  -59.9935 H         1 UNK         0.0848 
     91 H91        25.2768  -48.0551  -57.6416 H         1 UNK         0.3144 
     92 H92        27.4106  -49.6831  -59.5207 H         1 UNK         0.0727 
     93 H93        29.0617  -47.6712  -57.8967 H         1 UNK         0.0790 
     94 H94        29.2791  -48.0334  -59.6037 H         1 UNK         0.0790 
     95 H95        29.5992  -49.2699  -58.4067 H         1 UNK         0.0790 
     96 H96        27.6361  -49.2348  -56.6508 H         1 UNK         0.3215 
     97 H97        24.7210  -51.1418  -55.8396 H         1 UNK         0.0863 
     98 H98        26.3567  -52.3412  -54.4081 H         1 UNK         0.0808 
     99 H99        27.6957  -51.7112  -55.3664 H         1 UNK         0.0808 
    100 H100       26.5468  -52.8301  -56.0840 H         1 UNK         0.0808 
    101 H101       26.5108  -49.8472  -54.0980 H         1 UNK         0.3118 
    102 H102       25.1649  -46.5643  -54.1928 H         1 UNK         0.0546 
    103 H103       24.7975  -48.7756  -52.1073 H         1 UNK         0.0828 
    104 H104       23.5377  -47.7790  -52.8112 H         1 UNK         0.0828 
    105 H105       24.7572  -47.0425  -51.7848 H         1 UNK         0.0828 
    106 H106       27.3016  -46.5249  -53.8025 H         1 UNK         0.3005 
    107 H107       29.3816  -47.0469  -53.4584 H         1 UNK         0.1257 
    108 H108       29.5477  -48.4425  -50.7293 H         1 UNK         0.0775 
    109 H109       28.9709  -46.8175  -50.9466 H         1 UNK         0.0775 
    110 H110       30.3714  -45.2518  -49.8749 H         1 UNK         0.0840 
    111 H111       32.0732  -44.9899  -50.1259 H         1 UNK         0.0840 
    112 H112       30.6305  -49.4778  -52.7316 H         1 UNK         0.2987 
    113 H113       30.0281  -51.6499  -54.4740 H         1 UNK         0.0785 
    114 H114       29.7637  -51.2122  -56.8809 H         1 UNK         0.0798 
    115 H115       31.2734  -52.0612  -56.6052 H         1 UNK         0.0798 
    116 H116       31.2835  -50.3293  -56.9326 H         1 UNK         0.0798 
    117 H117       32.0575  -51.7149  -53.6224 H         1 UNK         0.3079 
    118 H118       34.0430  -50.6991  -52.6632 H         1 UNK         0.0794 
    119 H119       34.2746  -52.6099  -54.2981 H         1 UNK         0.0786 
    120 H120       35.8577  -52.0112  -53.8386 H         1 UNK         0.0786 
    121 H121       35.1703  -51.5735  -55.4010 H         1 UNK         0.0786 
    122 H122       34.9071  -48.6814  -54.4835 H         1 UNK         0.3032 
    123 H123       37.2039  -47.3331  -52.2655 H         1 UNK         0.1094 
    124 H124       38.0224  -48.3941  -55.0301 H         1 UNK         0.0794 
    125 H125       38.7839  -47.0528  -54.1745 H         1 UNK         0.0794 
    126 H126       38.8901  -48.6820  -53.5275 H         1 UNK         0.0794 
    127 H127       36.2546  -46.6668  -54.9515 H         1 UNK         0.3016 
@<TRIPOS>BOND
     1    1    2 1    
     2    1   67 1    
     3    1   68 1    
     4    1   69 1    
     5    2    3 2    
     6    2    4 am   BACKBONE|DICT|INTERRES
     7    4    5 1    
     8    4   70 1    
     9    5    6 1    
    10    5   65 1    
    11    5   71 1    
    12    6    7 1    
    13    6   72 1    
    14    6   73 1    
    15    7    8 1    
    16    8    9 1    
    17    8   74 1    
    18    8   75 1    
    19    9   10 ar   
    20    9   14 ar   
    21   10   11 ar   
    22   10   76 1    
    23   11   12 ar   
    24   11   48 1    
    25   12   13 ar   
    26   12   77 1    
    27   13   14 ar   
    28   13   15 1    
    29   14   78 1    
    30   15   16 1    
    31   15   79 1    
    32   15   80 1    
    33   16   17 1    
    34   17   18 1    
    35   17   81 1    
    36   17   82 1    
    37   18   19 1    
    38   18   22 1    
    39   18   83 1    
    40   19   20 am   BACKBONE|DICT|INTERRES
    41   19   21 2    
    42   20   84 1    
    43   20   85 1    
    44   22   23 am   BACKBONE|DICT|INTERRES
    45   22   86 1    
    46   23   24 2    
    47   23   25 1    
    48   25   26 1    
    49   25   27 1    
    50   25   87 1    
    51   26   88 1    
    52   26   89 1    
    53   26   90 1    
    54   27   28 am   BACKBONE|DICT|INTERRES
    55   27   91 1    
    56   28   29 2    
    57   28   30 1    
    58   30   31 1    
    59   30   32 1    
    60   30   92 1    
    61   31   93 1    
    62   31   94 1    
    63   31   95 1    
    64   32   33 am   BACKBONE|DICT|INTERRES
    65   32   96 1    
    66   33   34 2    
    67   33   35 1    
    68   35   36 1    
    69   35   37 1    
    70   35   97 1    
    71   36   98 1    
    72   36   99 1    
    73   36  100 1    
    74   37   38 am   BACKBONE|DICT|INTERRES
    75   37  101 1    
    76   38   39 2    
    77   38   40 1    
    78   40   41 1    
    79   40   42 1    
    80   40  102 1    
    81   41  103 1    
    82   41  104 1    
    83   41  105 1    
    84   42   43 am   BACKBONE|DICT|INTERRES
    85   42  106 1    
    86   43   44 2    
    87   43   45 1    
    88   45   46 1    
    89   45   49 1    
    90   45  107 1    
    91   46   47 1    
    92   46  108 1    
    93   46  109 1    
    94   47   48 1    
    95   48  110 1    
    96   48  111 1    
    97   49   50 am   BACKBONE|DICT|INTERRES
    98   49  112 1    
    99   50   51 2    
   100   50   52 1    
   101   52   53 1    
   102   52   54 1    
   103   52  113 1    
   104   53  114 1    
   105   53  115 1    
   106   53  116 1    
   107   54   55 am   BACKBONE|DICT|INTERRES
   108   54  117 1    
   109   55   56 2    
   110   55   57 1    
   111   57   58 1    
   112   57   59 1    
   113   57  118 1    
   114   58  119 1    
   115   58  120 1    
   116   58  121 1    
   117   59   60 am   BACKBONE|DICT|INTERRES
   118   59  122 1    
   119   60   61 2    
   120   60   62 1    
   121   62   63 1    
   122   62   64 1    
   123   62  123 1    
   124   63  124 1    
   125   63  125 1    
   126   63  126 1    
   127   64   65 am   BACKBONE|DICT|INTERRES
   128   64  127 1    
   129   65   66 2    
@<TRIPOS>SUBSTRUCTURE
     1 UNK         1 GROUP             0       ****    0 ROOT    
