@<TRIPOS>MOLECULE
3R134
127   129    1
SMALL
USER_CHARGES


@<TRIPOS>ATOM
      1 CA         38.2524  -46.1825  -56.1470 C.3       0 UNK        -0.1968 
      2 C          37.8540  -45.8870  -54.7027 C.2       0 UNK         0.4852 
      3 O          38.6488  -46.1414  -53.7990 O.2       0 UNK        -0.5359 
      4 N          36.6590  -45.3443  -54.4256 N.am      1 UNK        -0.4300 
      5 CA         35.5635  -45.0436  -55.3568 C.3       1 UNK         0.0863 
      6 C6         34.4659  -44.1618  -54.6981 C.3       11 UNK        -0.0953 
      7 S7         33.9037  -44.7484  -53.0568 S.3       11 UNK        -0.2369 
      8 C8         32.3442  -45.5889  -53.4662 C.3       11 UNK         0.0226 
      9 C9         31.1432  -44.6707  -53.3165 C.ar      11 UNK        -0.0699 
     10 C10        30.4350  -44.6431  -52.1130 C.ar      11 UNK        -0.0804 
     11 C11        29.2723  -43.8758  -51.9909 C.ar      11 UNK        -0.0871 
     12 C12        28.8516  -43.0900  -53.0671 C.ar      11 UNK        -0.1008 
     13 C13        29.5604  -43.0964  -54.2723 C.ar      11 UNK        -0.0735 
     14 C14        30.7062  -43.8895  -54.3899 C.ar      11 UNK        -0.0945 
     15 C15        29.0826  -42.2602  -55.4515 C.3       11 UNK         0.0169 
     16 S16        27.3933  -42.7188  -55.9568 S.3       11 UNK        -0.2669 
     17 C17        27.3848  -42.2083  -57.7110 C.3       11 UNK        -0.0850 
     18 CA         26.3021  -42.9374  -58.5529 C.3       10 UNK         0.0855 
     19 C          26.4187  -42.5235  -60.0491 C.2       10 UNK         0.5543 
     20 N          26.8819  -43.3912  -60.9413 N.am      10 UNK        -0.7343 
     21 O          26.0870  -41.3940  -60.4001 O.2       10 UNK        -0.5027 
     22 N          26.3178  -44.3867  -58.3051 N.am      10 UNK        -0.4495 
     23 C          25.4075  -45.2788  -58.7121 C.2       10 UNK         0.4903 
     24 O          24.3953  -44.9801  -59.3471 O.2       10 UNK        -0.4860 
     25 CA         25.6529  -46.7513  -58.3205 C.3       9 UNK         0.0227 
     26 CB         25.2786  -47.7284  -59.4542 C.3       9 UNK        -0.1964 
     27 N          27.0058  -47.0285  -57.8160 N.am      9 UNK        -0.4231 
     28 C          28.1706  -46.9282  -58.4772 C.2       9 UNK         0.5014 
     29 O          28.2770  -46.5404  -59.6414 O.2       9 UNK        -0.5270 
     30 CA         29.4340  -47.3103  -57.6878 C.3       8 UNK         0.0284 
     31 CB         29.8562  -46.1536  -56.7675 C.3       8 UNK        -0.1977 
     32 N          29.2455  -48.5346  -56.9039 N.am      8 UNK        -0.4342 
     33 C          29.0691  -49.7521  -57.4415 C.2       8 UNK         0.5039 
     34 O          29.1910  -49.9986  -58.6419 O.2       8 UNK        -0.5547 
     35 CA         28.6498  -50.8804  -56.4862 C.3       7 UNK         0.0281 
     36 CB         29.8744  -51.5334  -55.8235 C.3       7 UNK        -0.1963 
     37 N          27.7134  -50.3963  -55.4679 N.am      7 UNK        -0.4444 
     38 C          26.4116  -50.1644  -55.6978 C.2       7 UNK         0.5104 
     39 O          25.8517  -50.4130  -56.7652 O.2       7 UNK        -0.5100 
     40 CA         25.5860  -49.5479  -54.5529 C.3       6 UNK         0.0396 
     41 CB         24.8366  -50.6474  -53.7839 C.3       6 UNK        -0.1801 
     42 N          26.3844  -48.7612  -53.6097 N.am      6 UNK        -0.4747 
     43 C          26.9500  -47.5755  -53.8824 C.2       6 UNK         0.5012 
     44 O          26.8401  -47.0011  -54.9652 O.2       6 UNK        -0.5003 
     45 CA         27.8478  -46.9796  -52.7777 C.3       5 UNK         0.0782 
     46 C46        27.0032  -46.1536  -51.7679 C.3       11 UNK        -0.0868 
     47 S47        27.9341  -45.6213  -50.2848 S.3       11 UNK        -0.2515 
     48 C48        28.4470  -43.9238  -50.7128 C.3       11 UNK         0.0199 
     49 N          28.6626  -48.0152  -52.1254 N.am      5 UNK        -0.4607 
     50 C          29.5637  -48.7844  -52.7465 C.2       4 UNK         0.5031 
     51 O          29.8176  -48.7062  -53.9525 O.2       4 UNK        -0.5119 
     52 CA         30.2307  -49.8703  -51.8969 C.3       4 UNK         0.0263 
     53 CB         29.2343  -51.0133  -51.6116 C.3       4 UNK        -0.1967 
     54 N          31.3882  -50.3804  -52.6244 N.am      4 UNK        -0.4237 
     55 C          32.3676  -51.1451  -52.1265 C.2       3 UNK         0.4908 
     56 O          32.4176  -51.5140  -50.9524 O.2       3 UNK        -0.5102 
     57 CA         33.4803  -51.5902  -53.0973 C.3       3 UNK         0.0241 
     58 CB         33.2038  -53.0162  -53.6025 C.3       3 UNK        -0.1971 
     59 N          33.6631  -50.7017  -54.2509 N.am      3 UNK        -0.4139 
     60 C          34.1199  -49.4451  -54.1744 C.2       2 UNK         0.5016 
     61 O          34.4726  -48.9076  -53.1197 O.2       2 UNK        -0.5319 
     62 CA         34.1609  -48.6475  -55.4870 C.3       2 UNK         0.0286 
     63 CB         32.7452  -48.5398  -56.0983 C.3       2 UNK        -0.1963 
     64 N          34.7117  -47.3311  -55.1703 N.am      2 UNK        -0.4790 
     65 C          34.9708  -46.3154  -56.0000 C.2       1 UNK         0.5024 
     66 O          34.7985  -46.3561  -57.2179 O.2       1 UNK        -0.4888 
     67 H67        37.9743  -45.3727  -56.8198 H         1 UNK         0.0892 
     68 H68        39.3322  -46.3095  -56.2227 H         1 UNK         0.0892 
     69 H69        37.7851  -47.1042  -56.4924 H         1 UNK         0.0892 
     70 H70        36.4370  -45.1580  -53.4576 H         1 UNK         0.3107 
     71 H71        35.9838  -44.4515  -56.1718 H         1 UNK         0.0773 
     72 H72        33.6130  -44.0328  -55.3661 H         1 UNK         0.0680 
     73 H73        34.8649  -43.1571  -54.5509 H         1 UNK         0.0680 
     74 H74        32.2333  -46.4573  -52.8145 H         1 UNK         0.0650 
     75 H75        32.3834  -45.9818  -54.4807 H         1 UNK         0.0650 
     76 H76        30.7611  -45.2563  -51.2839 H         1 UNK         0.1397 
     77 H77        27.9550  -42.4910  -52.9818 H         1 UNK         0.1363 
     78 H78        31.2497  -43.9124  -55.3237 H         1 UNK         0.1355 
     79 H79        29.1032  -41.2036  -55.1813 H         1 UNK         0.0707 
     80 H80        29.7647  -42.3785  -56.2944 H         1 UNK         0.0707 
     81 H81        27.2374  -41.1274  -57.7544 H         1 UNK         0.1034 
     82 H82        28.3719  -42.3986  -58.1370 H         1 UNK         0.1034 
     83 H83        25.3278  -42.5806  -58.2139 H         1 UNK         0.0482 
     84 H84        26.9544  -43.1186  -61.9086 H         1 UNK         0.3460 
     85 H85        27.1602  -44.3174  -60.6520 H         1 UNK         0.3460 
     86 H86        27.0964  -44.7243  -57.7603 H         1 UNK         0.2989 
     87 H87        24.9838  -46.9511  -57.4824 H         1 UNK         0.0559 
     88 H88        25.8658  -47.5485  -60.3552 H         1 UNK         0.0848 
     89 H89        24.2274  -47.6297  -59.7272 H         1 UNK         0.0848 
     90 H90        25.4369  -48.7637  -59.1514 H         1 UNK         0.0848 
     91 H91        27.0472  -47.2521  -56.8236 H         1 UNK         0.3144 
     92 H92        30.2378  -47.4868  -58.4058 H         1 UNK         0.0727 
     93 H93        29.1198  -45.9589  -55.9872 H         1 UNK         0.0790 
     94 H94        29.9805  -45.2296  -57.3339 H         1 UNK         0.0790 
     95 H95        30.8073  -46.3595  -56.2815 H         1 UNK         0.0790 
     96 H96        29.2009  -48.4398  -55.8946 H         1 UNK         0.3215 
     97 H97        28.1457  -51.6477  -57.0785 H         1 UNK         0.0863 
     98 H98        29.5808  -52.3119  -55.1192 H         1 UNK         0.0808 
     99 H99        30.4861  -50.8089  -55.2906 H         1 UNK         0.0808 
    100 H100       30.5131  -52.0004  -56.5742 H         1 UNK         0.0808 
    101 H101       28.1051  -50.1192  -54.5797 H         1 UNK         0.3118 
    102 H102       24.8459  -48.8837  -55.0046 H         1 UNK         0.0546 
    103 H103       25.5229  -51.3392  -53.2938 H         1 UNK         0.0828 
    104 H104       24.2084  -51.2341  -54.4559 H         1 UNK         0.0828 
    105 H105       24.1827  -50.2242  -53.0213 H         1 UNK         0.0828 
    106 H106       26.5325  -49.1610  -52.6942 H         1 UNK         0.3005 
    107 H107       28.5379  -46.3008  -53.2822 H         1 UNK         0.1257 
    108 H108       26.1534  -46.7396  -51.4121 H         1 UNK         0.0775 
    109 H109       26.5773  -45.2765  -52.2592 H         1 UNK         0.0775 
    110 H110       27.5575  -43.2972  -50.7959 H         1 UNK         0.0840 
    111 H111       29.0375  -43.5137  -49.8926 H         1 UNK         0.0840 
    112 H112       28.5179  -48.1244  -51.1316 H         1 UNK         0.2987 
    113 H113       30.5683  -49.4222  -50.9601 H         1 UNK         0.0785 
    114 H114       28.3500  -50.6500  -51.0869 H         1 UNK         0.0798 
    115 H115       29.6790  -51.7837  -50.9817 H         1 UNK         0.0798 
    116 H116       28.8968  -51.4927  -52.5314 H         1 UNK         0.0798 
    117 H117       31.4355  -50.0658  -53.5845 H         1 UNK         0.3079 
    118 H118       34.4155  -51.6026  -52.5332 H         1 UNK         0.0794 
    119 H119       33.0930  -53.7111  -52.7686 H         1 UNK         0.0786 
    120 H120       34.0222  -53.3851  -54.2210 H         1 UNK         0.0786 
    121 H121       32.2867  -53.0663  -54.1911 H         1 UNK         0.0786 
    122 H122       33.4154  -51.0785  -55.1545 H         1 UNK         0.3032 
    123 H123       34.8348  -49.1484  -56.1850 H         1 UNK         0.1094 
    124 H124       32.7196  -47.8964  -56.9768 H         1 UNK         0.0794 
    125 H125       32.3789  -49.5133  -56.4242 H         1 UNK         0.0794 
    126 H126       32.0270  -48.1509  -55.3775 H         1 UNK         0.0794 
    127 H127       34.9092  -47.2219  -54.1804 H         1 UNK         0.3016 
@<TRIPOS>BOND
     1    1    2 1    
     2    1   67 1    
     3    1   68 1    
     4    1   69 1    
     5    2    3 2    
     6    2    4 am   BACKBONE|DICT|INTERRES
     7    4    5 1    
     8    4   70 1    
     9    5    6 1    
    10    5   65 1    
    11    5   71 1    
    12    6    7 1    
    13    6   72 1    
    14    6   73 1    
    15    7    8 1    
    16    8    9 1    
    17    8   74 1    
    18    8   75 1    
    19    9   10 ar   
    20    9   14 ar   
    21   10   11 ar   
    22   10   76 1    
    23   11   12 ar   
    24   11   48 1    
    25   12   13 ar   
    26   12   77 1    
    27   13   14 ar   
    28   13   15 1    
    29   14   78 1    
    30   15   16 1    
    31   15   79 1    
    32   15   80 1    
    33   16   17 1    
    34   17   18 1    
    35   17   81 1    
    36   17   82 1    
    37   18   19 1    
    38   18   22 1    
    39   18   83 1    
    40   19   20 am   BACKBONE|DICT|INTERRES
    41   19   21 2    
    42   20   84 1    
    43   20   85 1    
    44   22   23 am   BACKBONE|DICT|INTERRES
    45   22   86 1    
    46   23   24 2    
    47   23   25 1    
    48   25   26 1    
    49   25   27 1    
    50   25   87 1    
    51   26   88 1    
    52   26   89 1    
    53   26   90 1    
    54   27   28 am   BACKBONE|DICT|INTERRES
    55   27   91 1    
    56   28   29 2    
    57   28   30 1    
    58   30   31 1    
    59   30   32 1    
    60   30   92 1    
    61   31   93 1    
    62   31   94 1    
    63   31   95 1    
    64   32   33 am   BACKBONE|DICT|INTERRES
    65   32   96 1    
    66   33   34 2    
    67   33   35 1    
    68   35   36 1    
    69   35   37 1    
    70   35   97 1    
    71   36   98 1    
    72   36   99 1    
    73   36  100 1    
    74   37   38 am   BACKBONE|DICT|INTERRES
    75   37  101 1    
    76   38   39 2    
    77   38   40 1    
    78   40   41 1    
    79   40   42 1    
    80   40  102 1    
    81   41  103 1    
    82   41  104 1    
    83   41  105 1    
    84   42   43 am   BACKBONE|DICT|INTERRES
    85   42  106 1    
    86   43   44 2    
    87   43   45 1    
    88   45   46 1    
    89   45   49 1    
    90   45  107 1    
    91   46   47 1    
    92   46  108 1    
    93   46  109 1    
    94   47   48 1    
    95   48  110 1    
    96   48  111 1    
    97   49   50 am   BACKBONE|DICT|INTERRES
    98   49  112 1    
    99   50   51 2    
   100   50   52 1    
   101   52   53 1    
   102   52   54 1    
   103   52  113 1    
   104   53  114 1    
   105   53  115 1    
   106   53  116 1    
   107   54   55 am   BACKBONE|DICT|INTERRES
   108   54  117 1    
   109   55   56 2    
   110   55   57 1    
   111   57   58 1    
   112   57   59 1    
   113   57  118 1    
   114   58  119 1    
   115   58  120 1    
   116   58  121 1    
   117   59   60 am   BACKBONE|DICT|INTERRES
   118   59  122 1    
   119   60   61 2    
   120   60   62 1    
   121   62   63 1    
   122   62   64 1    
   123   62  123 1    
   124   63  124 1    
   125   63  125 1    
   126   63  126 1    
   127   64   65 am   BACKBONE|DICT|INTERRES
   128   64  127 1    
   129   65   66 2    
@<TRIPOS>SUBSTRUCTURE
     1 UNK         1 GROUP             0       ****    0 ROOT    
