@<TRIPOS>MOLECULE
3R134
127   129    1
SMALL
USER_CHARGES


@<TRIPOS>ATOM
      1 CA         35.7789  -46.6718  -49.8103 C.3       0 UNK        -0.1968 
      2 C          35.0380  -47.0885  -51.0707 C.2       0 UNK         0.4852 
      3 O          35.1721  -48.2335  -51.5098 O.2       0 UNK        -0.5359 
      4 N          34.2391  -46.1800  -51.6517 N.am      1 UNK        -0.4300 
      5 CA         33.4779  -46.3991  -52.8897 C.3       1 UNK         0.0863 
      6 C6         32.8388  -45.1036  -53.4437 C.3       11 UNK        -0.0953 
      7 S7         31.6465  -44.2804  -52.3269 S.3       11 UNK        -0.2369 
      8 C8         30.0252  -44.8972  -52.8993 C.3       11 UNK         0.0226 
      9 C9         29.7849  -44.6544  -54.3836 C.ar      11 UNK        -0.0699 
     10 C10        29.8306  -45.7240  -55.2806 C.ar      11 UNK        -0.0804 
     11 C11        29.6651  -45.5161  -56.6527 C.ar      11 UNK        -0.0871 
     12 C12        29.4191  -44.2230  -57.1235 C.ar      11 UNK        -0.1008 
     13 C13        29.3343  -43.1471  -56.2328 C.ar      11 UNK        -0.0735 
     14 C14        29.5205  -43.3691  -54.8638 C.ar      11 UNK        -0.0945 
     15 C15        29.0655  -41.7389  -56.7425 C.3       11 UNK         0.0169 
     16 S16        27.2857  -41.4347  -56.9787 S.3       11 UNK        -0.2669 
     17 C17        27.0974  -41.7662  -58.7647 C.3       11 UNK        -0.0850 
     18 CA         25.6565  -42.1837  -59.1530 C.3       10 UNK         0.0855 
     19 C          25.5264  -42.2919  -60.6976 C.2       10 UNK         0.5543 
     20 N          25.1108  -41.2223  -61.3616 N.am      10 UNK        -0.7343 
     21 O          25.8439  -43.3172  -61.2978 O.2       10 UNK        -0.5027 
     22 N          25.2526  -43.4155  -58.4608 N.am      10 UNK        -0.4495 
     23 C          24.0275  -43.9568  -58.4845 C.2       10 UNK         0.4903 
     24 O          23.0613  -43.4494  -59.0552 O.2       10 UNK        -0.4860 
     25 CA         23.8377  -45.2917  -57.7415 C.3       9 UNK         0.0227 
     26 CB         23.8792  -46.4666  -58.7319 C.3       9 UNK        -0.1964 
     27 N          24.8340  -45.5192  -56.6929 N.am      9 UNK        -0.4231 
     28 C          24.8880  -44.8845  -55.5168 C.2       9 UNK         0.5014 
     29 O          24.0587  -44.0468  -55.1567 O.2       9 UNK        -0.5270 
     30 CA         26.0622  -45.2670  -54.5919 C.3       8 UNK         0.0284 
     31 CB         26.0775  -44.4447  -53.2898 C.3       8 UNK        -0.1977 
     32 N          26.0885  -46.6950  -54.2521 N.am      8 UNK        -0.4342 
     33 C          26.4369  -47.6884  -55.0796 C.2       8 UNK         0.5039 
     34 O          26.7201  -47.5205  -56.2699 O.2       8 UNK        -0.5547 
     35 CA         26.4272  -49.1123  -54.4934 C.3       7 UNK         0.0281 
     36 CB         25.0348  -49.7449  -54.6499 C.3       7 UNK        -0.1963 
     37 N          27.4169  -49.9599  -55.1631 N.am      7 UNK        -0.4444 
     38 C          28.7405  -49.7850  -55.0586 C.2       7 UNK         0.5104 
     39 O          29.2504  -49.0172  -54.2416 O.2       7 UNK        -0.5100 
     40 CA         29.6455  -50.5462  -56.0464 C.3       6 UNK         0.0396 
     41 CB         28.9364  -50.7892  -57.4049 C.3       6 UNK        -0.1801 
     42 N          30.8664  -49.7485  -56.1956 N.am      6 UNK        -0.4747 
     43 C          31.8884  -49.9297  -57.0411 C.2       6 UNK         0.5012 
     44 O          32.0149  -50.9120  -57.7732 O.2       6 UNK        -0.5003 
     45 CA         32.9715  -48.8376  -57.0669 C.3       5 UNK         0.0782 
     46 C46        32.4333  -47.3809  -57.0049 C.3       11 UNK        -0.0868 
     47 S47        31.3657  -46.8876  -58.4032 S.3       11 UNK        -0.2515 
     48 C48        29.7260  -46.6918  -57.6202 C.3       11 UNK         0.0199 
     49 N          33.8893  -49.1071  -55.9613 N.am      5 UNK        -0.4607 
     50 C          35.1534  -49.5229  -56.0968 C.2       4 UNK         0.5031 
     51 O          35.6983  -49.7060  -57.1860 O.2       4 UNK        -0.5119 
     52 CA         35.9719  -49.7609  -54.8151 C.3       4 UNK         0.0263 
     53 CB         36.8368  -48.5314  -54.4922 C.3       4 UNK        -0.1967 
     54 N          35.1777  -50.1170  -53.6349 N.am      4 UNK        -0.4237 
     55 C          34.6078  -51.3168  -53.4443 C.2       3 UNK         0.4908 
     56 O          34.6037  -52.2130  -54.2887 O.2       3 UNK        -0.5102 
     57 CA         33.9577  -51.5778  -52.0772 C.3       3 UNK         0.0241 
     58 CB         35.0331  -51.8679  -51.0165 C.3       3 UNK        -0.1971 
     59 N          33.1529  -50.4359  -51.6491 N.am      3 UNK        -0.4139 
     60 C          31.8126  -50.3968  -51.6529 C.2       2 UNK         0.5016 
     61 O          31.0965  -51.3625  -51.9212 O.2       2 UNK        -0.5319 
     62 CA         31.1505  -49.0479  -51.3028 C.3       2 UNK         0.0286 
     63 CB         30.7472  -49.0155  -49.8201 C.3       2 UNK        -0.1963 
     64 N          31.9861  -47.8788  -51.5965 N.am      2 UNK        -0.4790 
     65 C          32.4685  -47.5623  -52.8077 C.2       1 UNK         0.5024 
     66 O          32.2076  -48.1950  -53.8283 O.2       1 UNK        -0.4888 
     67 H67        36.8540  -46.7607  -49.9634 H         1 UNK         0.0892 
     68 H68        35.5592  -45.6422  -49.5290 H         1 UNK         0.0892 
     69 H69        35.4982  -47.3192  -48.9800 H         1 UNK         0.0892 
     70 H70        34.1455  -45.2610  -51.2418 H         1 UNK         0.3107 
     71 H71        34.2110  -46.7136  -53.6340 H         1 UNK         0.0773 
     72 H72        32.3866  -45.2901  -54.4172 H         1 UNK         0.0680 
     73 H73        33.6309  -44.3810  -53.6451 H         1 UNK         0.0680 
     74 H74        29.9386  -45.9590  -52.6638 H         1 UNK         0.0650 
     75 H75        29.2475  -44.3961  -52.3228 H         1 UNK         0.0650 
     76 H76        30.0134  -46.7202  -54.9060 H         1 UNK         0.1397 
     77 H77        29.2943  -44.0587  -58.1842 H         1 UNK         0.1363 
     78 H78        29.4729  -42.5406  -54.1704 H         1 UNK         0.1355 
     79 H79        29.6091  -41.5618  -57.6718 H         1 UNK         0.0707 
     80 H80        29.4484  -41.0070  -56.0297 H         1 UNK         0.0707 
     81 H81        27.8057  -42.5351  -59.0754 H         1 UNK         0.1034 
     82 H82        27.3869  -40.8580  -59.2974 H         1 UNK         0.1034 
     83 H83        24.9766  -41.3985  -58.8157 H         1 UNK         0.0482 
     84 H84        25.0361  -41.2672  -62.3660 H         1 UNK         0.3460 
     85 H85        24.8578  -40.3739  -60.8787 H         1 UNK         0.3460 
     86 H86        25.9810  -43.9016  -57.9611 H         1 UNK         0.2989 
     87 H87        22.8508  -45.2726  -57.2746 H         1 UNK         0.0559 
     88 H88        23.1265  -46.3467  -59.5124 H         1 UNK         0.0848 
     89 H89        23.6788  -47.4148  -58.2325 H         1 UNK         0.0848 
     90 H90        24.8496  -46.5452  -59.2241 H         1 UNK         0.0848 
     91 H91        25.5393  -46.2378  -56.8562 H         1 UNK         0.3144 
     92 H92        26.9770  -45.0329  -55.1393 H         1 UNK         0.0727 
     93 H93        26.9289  -44.7068  -52.6634 H         1 UNK         0.0790 
     94 H94        25.1709  -44.5982  -52.7031 H         1 UNK         0.0790 
     95 H95        26.1525  -43.3779  -53.5056 H         1 UNK         0.0790 
     96 H96        25.8207  -46.9288  -53.3068 H         1 UNK         0.3215 
     97 H97        26.6786  -49.0615  -53.4316 H         1 UNK         0.0863 
     98 H98        25.0047  -50.7493  -54.2270 H         1 UNK         0.0808 
     99 H99        24.7371  -49.8115  -55.6974 H         1 UNK         0.0808 
    100 H100       24.2759  -49.1552  -54.1339 H         1 UNK         0.0808 
    101 H101       27.0692  -50.5725  -55.8852 H         1 UNK         0.3118 
    102 H102       29.9126  -51.5025  -55.5943 H         1 UNK         0.0546 
    103 H103       28.6294  -49.8529  -57.8729 H         1 UNK         0.0828 
    104 H104       28.0467  -51.4084  -57.2889 H         1 UNK         0.0828 
    105 H105       29.5676  -51.3214  -58.1143 H         1 UNK         0.0828 
    106 H106       30.9102  -48.9771  -55.5352 H         1 UNK         0.3005 
    107 H107       33.4917  -48.9445  -58.0217 H         1 UNK         0.1257 
    108 H108       31.9158  -47.1949  -56.0704 H         1 UNK         0.0775 
    109 H109       33.2793  -46.6921  -56.9993 H         1 UNK         0.0775 
    110 H110       28.9795  -46.5515  -58.4033 H         1 UNK         0.0840 
    111 H111       29.4441  -47.6127  -57.1117 H         1 UNK         0.0840 
    112 H112       33.4905  -49.0044  -55.0334 H         1 UNK         0.2987 
    113 H113       36.6481  -50.5938  -55.0210 H         1 UNK         0.0785 
    114 H114       37.4801  -48.7141  -53.6311 H         1 UNK         0.0798 
    115 H115       36.2306  -47.6529  -54.2748 H         1 UNK         0.0798 
    116 H116       37.4854  -48.2789  -55.3322 H         1 UNK         0.0798 
    117 H117       35.1702  -49.4405  -52.8732 H         1 UNK         0.3079 
    118 H118       33.3334  -52.4688  -52.1732 H         1 UNK         0.0794 
    119 H119       35.6570  -52.7121  -51.3132 H         1 UNK         0.0786 
    120 H120       34.5815  -52.1205  -50.0570 H         1 UNK         0.0786 
    121 H121       35.6921  -51.0126  -50.8599 H         1 UNK         0.0786 
    122 H122       33.6600  -49.5848  -51.4300 H         1 UNK         0.3032 
    123 H123       30.2446  -48.9665  -51.9048 H         1 UNK         0.1094 
    124 H124       30.1956  -48.1067  -49.5783 H         1 UNK         0.0794 
    125 H125       30.1008  -49.8592  -49.5738 H         1 UNK         0.0794 
    126 H126       31.6166  -49.0682  -49.1636 H         1 UNK         0.0794 
    127 H127       32.2589  -47.3035  -50.8129 H         1 UNK         0.3016 
@<TRIPOS>BOND
     1    1    2 1    
     2    1   67 1    
     3    1   68 1    
     4    1   69 1    
     5    2    3 2    
     6    2    4 am   BACKBONE|DICT|INTERRES
     7    4    5 1    
     8    4   70 1    
     9    5    6 1    
    10    5   65 1    
    11    5   71 1    
    12    6    7 1    
    13    6   72 1    
    14    6   73 1    
    15    7    8 1    
    16    8    9 1    
    17    8   74 1    
    18    8   75 1    
    19    9   10 ar   
    20    9   14 ar   
    21   10   11 ar   
    22   10   76 1    
    23   11   12 ar   
    24   11   48 1    
    25   12   13 ar   
    26   12   77 1    
    27   13   14 ar   
    28   13   15 1    
    29   14   78 1    
    30   15   16 1    
    31   15   79 1    
    32   15   80 1    
    33   16   17 1    
    34   17   18 1    
    35   17   81 1    
    36   17   82 1    
    37   18   19 1    
    38   18   22 1    
    39   18   83 1    
    40   19   20 am   BACKBONE|DICT|INTERRES
    41   19   21 2    
    42   20   84 1    
    43   20   85 1    
    44   22   23 am   BACKBONE|DICT|INTERRES
    45   22   86 1    
    46   23   24 2    
    47   23   25 1    
    48   25   26 1    
    49   25   27 1    
    50   25   87 1    
    51   26   88 1    
    52   26   89 1    
    53   26   90 1    
    54   27   28 am   BACKBONE|DICT|INTERRES
    55   27   91 1    
    56   28   29 2    
    57   28   30 1    
    58   30   31 1    
    59   30   32 1    
    60   30   92 1    
    61   31   93 1    
    62   31   94 1    
    63   31   95 1    
    64   32   33 am   BACKBONE|DICT|INTERRES
    65   32   96 1    
    66   33   34 2    
    67   33   35 1    
    68   35   36 1    
    69   35   37 1    
    70   35   97 1    
    71   36   98 1    
    72   36   99 1    
    73   36  100 1    
    74   37   38 am   BACKBONE|DICT|INTERRES
    75   37  101 1    
    76   38   39 2    
    77   38   40 1    
    78   40   41 1    
    79   40   42 1    
    80   40  102 1    
    81   41  103 1    
    82   41  104 1    
    83   41  105 1    
    84   42   43 am   BACKBONE|DICT|INTERRES
    85   42  106 1    
    86   43   44 2    
    87   43   45 1    
    88   45   46 1    
    89   45   49 1    
    90   45  107 1    
    91   46   47 1    
    92   46  108 1    
    93   46  109 1    
    94   47   48 1    
    95   48  110 1    
    96   48  111 1    
    97   49   50 am   BACKBONE|DICT|INTERRES
    98   49  112 1    
    99   50   51 2    
   100   50   52 1    
   101   52   53 1    
   102   52   54 1    
   103   52  113 1    
   104   53  114 1    
   105   53  115 1    
   106   53  116 1    
   107   54   55 am   BACKBONE|DICT|INTERRES
   108   54  117 1    
   109   55   56 2    
   110   55   57 1    
   111   57   58 1    
   112   57   59 1    
   113   57  118 1    
   114   58  119 1    
   115   58  120 1    
   116   58  121 1    
   117   59   60 am   BACKBONE|DICT|INTERRES
   118   59  122 1    
   119   60   61 2    
   120   60   62 1    
   121   62   63 1    
   122   62   64 1    
   123   62  123 1    
   124   63  124 1    
   125   63  125 1    
   126   63  126 1    
   127   64   65 am   BACKBONE|DICT|INTERRES
   128   64  127 1    
   129   65   66 2    
@<TRIPOS>SUBSTRUCTURE
     1 UNK         1 GROUP             0       ****    0 ROOT    
