@<TRIPOS>MOLECULE
3R134
127   129    1
SMALL
USER_CHARGES


@<TRIPOS>ATOM
      1 CA         37.4949  -44.9936  -53.6827 C.3       0 UNK        -0.1968 
      2 C          36.2888  -44.9324  -52.7570 C.2       0 UNK         0.4852 
      3 O          36.4574  -44.9601  -51.5371 O.2       0 UNK        -0.5359 
      4 N          35.0808  -44.8580  -53.3357 N.am      1 UNK        -0.4300 
      5 CA         33.7787  -44.7906  -52.6472 C.3       1 UNK         0.0863 
      6 C6         33.5805  -43.5160  -51.7749 C.3       11 UNK        -0.0953 
      7 S7         34.0731  -41.9575  -52.5975 S.3       11 UNK        -0.2369 
      8 C8         32.4822  -41.2791  -53.1891 C.3       11 UNK         0.0226 
      9 C9         31.9295  -41.8714  -54.4894 C.ar      11 UNK        -0.0699 
     10 C10        32.6433  -42.7792  -55.2843 C.ar      11 UNK        -0.0804 
     11 C11        32.0796  -43.3161  -56.4446 C.ar      11 UNK        -0.0871 
     12 C12        30.8179  -42.8791  -56.8568 C.ar      11 UNK        -0.1008 
     13 C13        30.1045  -41.9451  -56.0993 C.ar      11 UNK        -0.0735 
     14 C14        30.6599  -41.4614  -54.9110 C.ar      11 UNK        -0.0945 
     15 C15        28.7676  -41.4063  -56.5954 C.3       11 UNK         0.0169 
     16 S16        27.5805  -42.7140  -57.0407 S.3       11 UNK        -0.2669 
     17 C17        26.7700  -43.0984  -55.4454 C.3       11 UNK        -0.0850 
     18 CA         26.7574  -44.6162  -55.0844 C.3       10 UNK         0.0855 
     19 C          25.9891  -44.8865  -53.7538 C.2       10 UNK         0.5543 
     20 N          25.2217  -45.9627  -53.6320 N.am      10 UNK        -0.7343 
     21 O          26.1134  -44.1202  -52.8016 O.2       10 UNK        -0.5027 
     22 N          26.3838  -45.4756  -56.2246 N.am      10 UNK        -0.4495 
     23 C          25.2149  -45.4486  -56.8790 C.2       10 UNK         0.4903 
     24 O          24.2248  -44.8326  -56.4828 O.2       10 UNK        -0.4860 
     25 CA         25.1311  -46.1627  -58.2371 C.3       9 UNK         0.0227 
     26 CB         25.2914  -45.1121  -59.3591 C.3       9 UNK        -0.1964 
     27 N          26.0999  -47.2548  -58.4060 N.am      9 UNK        -0.4231 
     28 C          26.0724  -48.1336  -59.4191 C.2       9 UNK         0.5014 
     29 O          25.2186  -48.1368  -60.3078 O.2       9 UNK        -0.5270 
     30 CA         27.1787  -49.1996  -59.4540 C.3       8 UNK         0.0284 
     31 CB         28.5171  -48.5935  -59.9080 C.3       8 UNK        -0.1977 
     32 N          27.3372  -49.8873  -58.1721 N.am      8 UNK        -0.4342 
     33 C          26.4316  -50.7331  -57.6578 C.2       8 UNK         0.5039 
     34 O          25.3919  -51.0582  -58.2332 O.2       8 UNK        -0.5547 
     35 CA         26.7282  -51.3281  -56.2720 C.3       7 UNK         0.0281 
     36 CB         27.5407  -52.6255  -56.4105 C.3       7 UNK        -0.1963 
     37 N          27.4336  -50.4024  -55.3855 N.am      7 UNK        -0.4444 
     38 C          26.9121  -49.2731  -54.8866 C.2       7 UNK         0.5104 
     39 O          25.7587  -48.8914  -55.0882 O.2       7 UNK        -0.5100 
     40 CA         27.8602  -48.3933  -54.0569 C.3       6 UNK         0.0396 
     41 CB         28.0185  -48.9436  -52.6324 C.3       6 UNK        -0.1801 
     42 N          29.1726  -48.2127  -54.6786 N.am      6 UNK        -0.4747 
     43 C          29.3782  -47.6691  -55.8885 C.2       6 UNK         0.5012 
     44 O          28.4785  -47.2859  -56.6394 O.2       6 UNK        -0.5003 
     45 CA         30.8427  -47.5470  -56.3369 C.3       5 UNK         0.0782 
     46 C46        31.4915  -46.3316  -55.6335 C.3       11 UNK        -0.0868 
     47 S47        33.1448  -45.9044  -56.2773 S.3       11 UNK        -0.2515 
     48 C48        32.8187  -44.3851  -57.2443 C.3       11 UNK         0.0199 
     49 N          31.5557  -48.8051  -56.0939 N.am      5 UNK        -0.4607 
     50 C          31.3052  -49.9489  -56.7485 C.2       4 UNK         0.5031 
     51 O          30.5029  -50.0427  -57.6769 O.2       4 UNK        -0.5119 
     52 CA         32.0357  -51.2110  -56.2583 C.3       4 UNK         0.0263 
     53 CB         33.4639  -51.2639  -56.8237 C.3       4 UNK        -0.1967 
     54 N          32.0806  -51.3153  -54.7976 N.am      4 UNK        -0.4237 
     55 C          31.0041  -51.4311  -54.0052 C.2       3 UNK         0.4908 
     56 O          29.8521  -51.5248  -54.4250 O.2       3 UNK        -0.5102 
     57 CA         31.2420  -51.3905  -52.4842 C.3       3 UNK         0.0241 
     58 CB         31.4505  -52.8116  -51.9377 C.3       3 UNK        -0.1971 
     59 N          32.3618  -50.5372  -52.0704 N.am      3 UNK        -0.4139 
     60 C          32.5075  -49.2396  -52.3761 C.2       2 UNK         0.5016 
     61 O          31.6916  -48.6040  -53.0502 O.2       2 UNK        -0.5319 
     62 CA         33.8039  -48.5724  -51.8820 C.3       2 UNK         0.0286 
     63 CB         35.0509  -49.3836  -52.2865 C.3       2 UNK        -0.1963 
     64 N          33.9559  -47.2232  -52.4231 N.am      2 UNK        -0.4790 
     65 C          33.4558  -46.1006  -51.8895 C.2       1 UNK         0.5024 
     66 O          32.7880  -46.0762  -50.8537 O.2       1 UNK        -0.4888 
     67 H67        37.2064  -44.9665  -54.7334 H         1 UNK         0.0892 
     68 H68        38.1562  -44.1489  -53.4917 H         1 UNK         0.0892 
     69 H69        38.0553  -45.9118  -53.5086 H         1 UNK         0.0892 
     70 H70        35.0277  -44.8584  -54.3447 H         1 UNK         0.3107 
     71 H71        33.0275  -44.7510  -53.4343 H         1 UNK         0.0773 
     72 H72        34.1680  -43.5946  -50.8586 H         1 UNK         0.0680 
     73 H73        32.5403  -43.4351  -51.4551 H         1 UNK         0.0680 
     74 H74        32.6201  -40.2080  -53.3424 H         1 UNK         0.0650 
     75 H75        31.7385  -41.3793  -52.3973 H         1 UNK         0.0650 
     76 H76        33.6351  -43.0957  -55.0024 H         1 UNK         0.1397 
     77 H77        30.3851  -43.2660  -57.7694 H         1 UNK         0.1363 
     78 H78        30.1118  -40.7394  -54.3207 H         1 UNK         0.1355 
     79 H79        28.3130  -40.7342  -55.8659 H         1 UNK         0.0707 
     80 H80        28.9572  -40.8025  -57.4838 H         1 UNK         0.0707 
     81 H81        27.2616  -42.5347  -54.6505 H         1 UNK         0.1034 
     82 H82        25.7490  -42.7157  -55.4940 H         1 UNK         0.1034 
     83 H83        27.7891  -44.8932  -54.8644 H         1 UNK         0.0482 
     84 H84        24.7337  -46.1267  -52.7662 H         1 UNK         0.3460 
     85 H85        25.1237  -46.6100  -54.4002 H         1 UNK         0.3460 
     86 H86        27.1505  -46.0362  -56.5815 H         1 UNK         0.2989 
     87 H87        24.1299  -46.5935  -58.3022 H         1 UNK         0.0559 
     88 H88        24.6197  -44.2660  -59.2062 H         1 UNK         0.0848 
     89 H89        25.0596  -45.5207  -60.3420 H         1 UNK         0.0848 
     90 H90        26.3072  -44.7161  -59.3913 H         1 UNK         0.0848 
     91 H91        26.8311  -47.3510  -57.7081 H         1 UNK         0.3144 
     92 H92        26.8900  -49.9471  -60.1963 H         1 UNK         0.0727 
     93 H93        29.2757  -49.3653  -60.0383 H         1 UNK         0.0790 
     94 H94        28.9014  -47.8646  -59.1950 H         1 UNK         0.0790 
     95 H95        28.4083  -48.0841  -60.8664 H         1 UNK         0.0790 
     96 H96        28.1864  -49.7020  -57.6528 H         1 UNK         0.3215 
     97 H97        25.7708  -51.5716  -55.8061 H         1 UNK         0.0863 
     98 H98        27.6863  -53.1069  -55.4433 H         1 UNK         0.0808 
     99 H99        28.5253  -52.4394  -56.8422 H         1 UNK         0.0808 
    100 H100       27.0293  -53.3414  -57.0555 H         1 UNK         0.0808 
    101 H101       28.3824  -50.6623  -55.1188 H         1 UNK         0.3118 
    102 H102       27.4197  -47.4019  -53.9813 H         1 UNK         0.0546 
    103 H103       28.3755  -49.9724  -52.6352 H         1 UNK         0.0828 
    104 H104       27.0618  -48.9365  -52.1087 H         1 UNK         0.0828 
    105 H105       28.7151  -48.3444  -52.0456 H         1 UNK         0.0828 
    106 H106       29.9849  -48.4813  -54.1293 H         1 UNK         0.3005 
    107 H107       30.8374  -47.3610  -57.4135 H         1 UNK         0.1257 
    108 H108       31.5912  -46.5152  -54.5635 H         1 UNK         0.0775 
    109 H109       30.8355  -45.4644  -55.7114 H         1 UNK         0.0775 
    110 H110       33.7678  -43.9772  -57.5946 H         1 UNK         0.0840 
    111 H111       32.2554  -44.6578  -58.1382 H         1 UNK         0.0840 
    112 H112       32.1756  -48.8179  -55.2961 H         1 UNK         0.2987 
    113 H113       31.4858  -52.0761  -56.6354 H         1 UNK         0.0785 
    114 H114       33.4532  -51.2054  -57.9131 H         1 UNK         0.0798 
    115 H115       33.9624  -52.1959  -56.5565 H         1 UNK         0.0798 
    116 H116       34.0762  -50.4379  -56.4594 H         1 UNK         0.0798 
    117 H117       32.9887  -51.2536  -54.3623 H         1 UNK         0.3079 
    118 H118       30.3428  -50.9811  -52.0229 H         1 UNK         0.0794 
    119 H119       31.5131  -52.8142  -50.8493 H         1 UNK         0.0786 
    120 H120       32.3614  -53.2667  -52.3288 H         1 UNK         0.0786 
    121 H121       30.6178  -53.4610  -52.2127 H         1 UNK         0.0786 
    122 H122       33.0759  -50.9809  -51.5108 H         1 UNK         0.3032 
    123 H123       33.7555  -48.5189  -50.7919 H         1 UNK         0.1094 
    124 H124       35.0999  -49.5416  -53.3649 H         1 UNK         0.0794 
    125 H125       35.9663  -48.8731  -51.9851 H         1 UNK         0.0794 
    126 H126       35.0701  -50.3636  -51.8088 H         1 UNK         0.0794 
    127 H127       34.4604  -47.1443  -53.2933 H         1 UNK         0.3016 
@<TRIPOS>BOND
     1    1    2 1    
     2    1   67 1    
     3    1   68 1    
     4    1   69 1    
     5    2    3 2    
     6    2    4 am   BACKBONE|DICT|INTERRES
     7    4    5 1    
     8    4   70 1    
     9    5    6 1    
    10    5   65 1    
    11    5   71 1    
    12    6    7 1    
    13    6   72 1    
    14    6   73 1    
    15    7    8 1    
    16    8    9 1    
    17    8   74 1    
    18    8   75 1    
    19    9   10 ar   
    20    9   14 ar   
    21   10   11 ar   
    22   10   76 1    
    23   11   12 ar   
    24   11   48 1    
    25   12   13 ar   
    26   12   77 1    
    27   13   14 ar   
    28   13   15 1    
    29   14   78 1    
    30   15   16 1    
    31   15   79 1    
    32   15   80 1    
    33   16   17 1    
    34   17   18 1    
    35   17   81 1    
    36   17   82 1    
    37   18   19 1    
    38   18   22 1    
    39   18   83 1    
    40   19   20 am   BACKBONE|DICT|INTERRES
    41   19   21 2    
    42   20   84 1    
    43   20   85 1    
    44   22   23 am   BACKBONE|DICT|INTERRES
    45   22   86 1    
    46   23   24 2    
    47   23   25 1    
    48   25   26 1    
    49   25   27 1    
    50   25   87 1    
    51   26   88 1    
    52   26   89 1    
    53   26   90 1    
    54   27   28 am   BACKBONE|DICT|INTERRES
    55   27   91 1    
    56   28   29 2    
    57   28   30 1    
    58   30   31 1    
    59   30   32 1    
    60   30   92 1    
    61   31   93 1    
    62   31   94 1    
    63   31   95 1    
    64   32   33 am   BACKBONE|DICT|INTERRES
    65   32   96 1    
    66   33   34 2    
    67   33   35 1    
    68   35   36 1    
    69   35   37 1    
    70   35   97 1    
    71   36   98 1    
    72   36   99 1    
    73   36  100 1    
    74   37   38 am   BACKBONE|DICT|INTERRES
    75   37  101 1    
    76   38   39 2    
    77   38   40 1    
    78   40   41 1    
    79   40   42 1    
    80   40  102 1    
    81   41  103 1    
    82   41  104 1    
    83   41  105 1    
    84   42   43 am   BACKBONE|DICT|INTERRES
    85   42  106 1    
    86   43   44 2    
    87   43   45 1    
    88   45   46 1    
    89   45   49 1    
    90   45  107 1    
    91   46   47 1    
    92   46  108 1    
    93   46  109 1    
    94   47   48 1    
    95   48  110 1    
    96   48  111 1    
    97   49   50 am   BACKBONE|DICT|INTERRES
    98   49  112 1    
    99   50   51 2    
   100   50   52 1    
   101   52   53 1    
   102   52   54 1    
   103   52  113 1    
   104   53  114 1    
   105   53  115 1    
   106   53  116 1    
   107   54   55 am   BACKBONE|DICT|INTERRES
   108   54  117 1    
   109   55   56 2    
   110   55   57 1    
   111   57   58 1    
   112   57   59 1    
   113   57  118 1    
   114   58  119 1    
   115   58  120 1    
   116   58  121 1    
   117   59   60 am   BACKBONE|DICT|INTERRES
   118   59  122 1    
   119   60   61 2    
   120   60   62 1    
   121   62   63 1    
   122   62   64 1    
   123   62  123 1    
   124   63  124 1    
   125   63  125 1    
   126   63  126 1    
   127   64   65 am   BACKBONE|DICT|INTERRES
   128   64  127 1    
   129   65   66 2    
@<TRIPOS>SUBSTRUCTURE
     1 UNK         1 GROUP             0       ****    0 ROOT    
