@<TRIPOS>MOLECULE
3R134
127   129    1
SMALL
USER_CHARGES


@<TRIPOS>ATOM
      1 CA         33.5729  -46.9935  -51.2781 C.3       0 UNK        -0.1968 
      2 C          33.7808  -46.5681  -52.7238 C.2       0 UNK         0.4852 
      3 O          32.9743  -46.9166  -53.5850 O.2       0 UNK        -0.5359 
      4 N          34.8581  -45.8172  -52.9888 N.am      1 UNK        -0.4300 
      5 CA         35.2334  -45.2669  -54.2963 C.3       1 UNK         0.0863 
      6 C6         34.2596  -44.1656  -54.8009 C.3       11 UNK        -0.0953 
      7 S7         34.3046  -42.7205  -53.6927 S.3       11 UNK        -0.2369 
      8 C8         32.9119  -41.7349  -54.3229 C.3       11 UNK         0.0226 
      9 C9         31.5486  -42.2713  -53.9004 C.ar      11 UNK        -0.0699 
     10 C10        31.2651  -42.5235  -52.5539 C.ar      11 UNK        -0.0804 
     11 C11        29.9884  -42.9334  -52.1576 C.ar      11 UNK        -0.0871 
     12 C12        28.9847  -43.0797  -53.1201 C.ar      11 UNK        -0.1008 
     13 C13        29.2578  -42.8436  -54.4725 C.ar      11 UNK        -0.0735 
     14 C14        30.5429  -42.4467  -54.8546 C.ar      11 UNK        -0.0945 
     15 C15        28.1614  -42.9557  -55.5253 C.3       11 UNK         0.0169 
     16 S16        27.2605  -44.5372  -55.4843 S.3       11 UNK        -0.2669 
     17 C17        28.5882  -45.7628  -55.7479 C.3       11 UNK        -0.0850 
     18 CA         29.1815  -45.7777  -57.1785 C.3       10 UNK         0.0855 
     19 C          30.2967  -46.8584  -57.3013 C.2       10 UNK         0.5543 
     20 N          30.1645  -47.8666  -58.1575 N.am      10 UNK        -0.7343 
     21 O          31.3122  -46.7683  -56.6173 O.2       10 UNK        -0.5027 
     22 N          28.1336  -45.8718  -58.2052 N.am      10 UNK        -0.4495 
     23 C          28.2821  -45.4918  -59.4810 C.2       10 UNK         0.4903 
     24 O          29.2907  -44.9269  -59.9074 O.2       10 UNK        -0.4860 
     25 CA         27.1105  -45.7862  -60.4449 C.3       9 UNK         0.0227 
     26 CB         27.5841  -45.9783  -61.9018 C.3       9 UNK        -0.1964 
     27 N          26.2581  -46.9106  -60.0306 N.am      9 UNK        -0.4231 
     28 C          26.6447  -48.1748  -59.8063 C.2       9 UNK         0.5014 
     29 O          27.8010  -48.5850  -59.9390 O.2       9 UNK        -0.5270 
     30 CA         25.5535  -49.1395  -59.3143 C.3       8 UNK         0.0284 
     31 CB         25.1877  -50.1529  -60.4109 C.3       8 UNK        -0.1977 
     32 N          25.9863  -49.8539  -58.1120 N.am      8 UNK        -0.4342 
     33 C          26.2708  -49.2695  -56.9408 C.2       8 UNK         0.5039 
     34 O          26.1389  -48.0610  -56.7284 O.2       8 UNK        -0.5547 
     35 CA         26.8376  -50.1948  -55.8520 C.3       7 UNK         0.0281 
     36 CB         28.3293  -50.4648  -56.1085 C.3       7 UNK        -0.1963 
     37 N          26.6728  -49.6311  -54.5094 N.am      7 UNK        -0.4444 
     38 C          25.5184  -49.6454  -53.8256 C.2       7 UNK         0.5104 
     39 O          24.4796  -50.1395  -54.2679 O.2       7 UNK        -0.5100 
     40 CA         25.5026  -49.0620  -52.3974 C.3       6 UNK         0.0396 
     41 CB         25.2505  -50.1773  -51.3681 C.3       6 UNK        -0.1801 
     42 N          26.7433  -48.3737  -52.0379 N.am      6 UNK        -0.4747 
     43 C          26.9847  -47.0679  -52.2208 C.2       6 UNK         0.5012 
     44 O          26.1402  -46.2750  -52.6359 O.2       6 UNK        -0.5003 
     45 CA         28.4037  -46.5526  -51.8778 C.3       5 UNK         0.0782 
     46 C46        28.3647  -45.6823  -50.5987 C.3       11 UNK        -0.0868 
     47 S47        29.9738  -44.9115  -50.2095 S.3       11 UNK        -0.2515 
     48 C48        29.6939  -43.1749  -50.6840 C.3       11 UNK         0.0199 
     49 N          29.4180  -47.6167  -51.7892 N.am      5 UNK        -0.4607 
     50 C          29.7945  -48.3868  -52.8155 C.2       4 UNK         0.5031 
     51 O          29.2678  -48.3383  -53.9273 O.2       4 UNK        -0.5119 
     52 CA         30.8772  -49.4335  -52.5519 C.3       4 UNK         0.0263 
     53 CB         30.2749  -50.7054  -51.9287 C.3       4 UNK        -0.1967 
     54 N          31.4817  -49.7474  -53.8389 N.am      4 UNK        -0.4237 
     55 C          32.7179  -50.2047  -54.0468 C.2       3 UNK         0.4908 
     56 O          33.5130  -50.4866  -53.1493 O.2       3 UNK        -0.5102 
     57 CA         33.1397  -50.3623  -55.5101 C.3       3 UNK         0.0241 
     58 CB         32.0166  -50.9175  -56.4131 C.3       3 UNK        -0.1971 
     59 N          33.6167  -49.0760  -56.0127 N.am      3 UNK        -0.4139 
     60 C          34.4645  -48.9340  -57.0397 C.2       2 UNK         0.5016 
     61 O          34.9214  -49.8818  -57.6814 O.2       2 UNK        -0.5319 
     62 CA         34.8925  -47.5082  -57.4316 C.3       2 UNK         0.0286 
     63 CB         34.1641  -47.0424  -58.7032 C.3       2 UNK        -0.1963 
     64 N          34.6995  -46.5199  -56.3667 N.am      2 UNK        -0.4790 
     65 C          35.5152  -46.3962  -55.3099 C.2       1 UNK         0.5024 
     66 O          36.4904  -47.1264  -55.1216 O.2       1 UNK        -0.4888 
     67 H67        33.7385  -48.0658  -51.1766 H         1 UNK         0.0892 
     68 H68        34.2531  -46.4783  -50.6003 H         1 UNK         0.0892 
     69 H69        32.5536  -46.7685  -50.9652 H         1 UNK         0.0892 
     70 H70        35.4948  -45.5931  -52.2374 H         1 UNK         0.3107 
     71 H71        36.2030  -44.7890  -54.1453 H         1 UNK         0.0773 
     72 H72        33.2357  -44.5383  -54.8692 H         1 UNK         0.0680 
     73 H73        34.5411  -43.8219  -55.7980 H         1 UNK         0.0680 
     74 H74        32.9899  -41.6671  -55.4092 H         1 UNK         0.0650 
     75 H75        33.0114  -40.7169  -53.9445 H         1 UNK         0.0650 
     76 H76        32.0382  -42.3844  -51.8106 H         1 UNK         0.1397 
     77 H77        27.9883  -43.3742  -52.8193 H         1 UNK         0.1363 
     78 H78        30.7523  -42.2407  -55.8954 H         1 UNK         0.1355 
     79 H79        27.4468  -42.1468  -55.3685 H         1 UNK         0.0707 
     80 H80        28.5658  -42.8127  -56.5284 H         1 UNK         0.0707 
     81 H81        29.3758  -45.6032  -55.0089 H         1 UNK         0.1034 
     82 H82        28.1582  -46.7394  -55.5240 H         1 UNK         0.1034 
     83 H83        29.6899  -44.8226  -57.3207 H         1 UNK         0.0482 
     84 H84        30.9055  -48.5416  -58.2373 H         1 UNK         0.3460 
     85 H85        29.3364  -47.9566  -58.7360 H         1 UNK         0.3460 
     86 H86        27.2861  -46.3470  -57.9219 H         1 UNK         0.2989 
     87 H87        26.4746  -44.9002  -60.4197 H         1 UNK         0.0559 
     88 H88        28.0955  -45.0882  -62.2703 H         1 UNK         0.0848 
     89 H89        26.7451  -46.1663  -62.5715 H         1 UNK         0.0848 
     90 H90        28.2799  -46.8132  -61.9930 H         1 UNK         0.0848 
     91 H91        25.2888  -46.6770  -59.8616 H         1 UNK         0.3144 
     92 H92        24.6574  -48.5700  -59.0582 H         1 UNK         0.0727 
     93 H93        26.0433  -50.7676  -60.6946 H         1 UNK         0.0790 
     94 H94        24.8407  -49.6440  -61.3113 H         1 UNK         0.0790 
     95 H95        24.3871  -50.8185  -60.0875 H         1 UNK         0.0790 
     96 H96        26.1647  -50.8421  -58.2176 H         1 UNK         0.3215 
     97 H97        26.3034  -51.1469  -55.8920 H         1 UNK         0.0863 
     98 H98        28.7730  -51.0620  -55.3117 H         1 UNK         0.0808 
     99 H99        28.8921  -49.5350  -56.1881 H         1 UNK         0.0808 
    100 H100       28.4768  -51.0082  -57.0425 H         1 UNK         0.0808 
    101 H101       27.4725  -49.1329  -54.1316 H         1 UNK         0.3118 
    102 H102       24.6672  -48.3607  -52.3433 H         1 UNK         0.0546 
    103 H103       26.0411  -50.9285  -51.3834 H         1 UNK         0.0828 
    104 H104       24.3097  -50.6915  -51.5696 H         1 UNK         0.0828 
    105 H105       25.1861  -49.7768  -50.3563 H         1 UNK         0.0828 
    106 H106       27.4936  -48.9474  -51.6812 H         1 UNK         0.3005 
    107 H107       28.6948  -45.9088  -52.7098 H         1 UNK         0.1257 
    108 H108       28.0681  -46.2874  -49.7398 H         1 UNK         0.0775 
    109 H109       27.6063  -44.9023  -50.6876 H         1 UNK         0.0775 
    110 H110       28.6755  -42.8692  -50.4401 H         1 UNK         0.0840 
    111 H111       30.3428  -42.5446  -50.0739 H         1 UNK         0.0840 
    112 H112       29.8821  -47.7115  -50.8975 H         1 UNK         0.2987 
    113 H113       31.6290  -49.0089  -51.8861 H         1 UNK         0.0785 
    114 H114       29.8147  -50.4911  -50.9635 H         1 UNK         0.0798 
    115 H115       31.0398  -51.4634  -51.7593 H         1 UNK         0.0798 
    116 H116       29.5079  -51.1431  -52.5694 H         1 UNK         0.0798 
    117 H117       30.9157  -49.4547  -54.6266 H         1 UNK         0.3079 
    118 H118       33.9671  -51.0753  -55.5195 H         1 UNK         0.0794 
    119 H119       32.4062  -51.2104  -57.3881 H         1 UNK         0.0786 
    120 H120       31.2300  -50.1833  -56.5832 H         1 UNK         0.0786 
    121 H121       31.5569  -51.8035  -55.9728 H         1 UNK         0.0786 
    122 H122       33.3021  -48.2490  -55.5135 H         1 UNK         0.3032 
    123 H123       35.9593  -47.5554  -57.6639 H         1 UNK         0.1094 
    124 H124       33.0878  -46.9703  -58.5539 H         1 UNK         0.0794 
    125 H125       34.5233  -46.0671  -59.0318 H         1 UNK         0.0794 
    126 H126       34.3302  -47.7406  -59.5248 H         1 UNK         0.0794 
    127 H127       33.8694  -45.9446  -56.4206 H         1 UNK         0.3016 
@<TRIPOS>BOND
     1    1    2 1    
     2    1   67 1    
     3    1   68 1    
     4    1   69 1    
     5    2    3 2    
     6    2    4 am   BACKBONE|DICT|INTERRES
     7    4    5 1    
     8    4   70 1    
     9    5    6 1    
    10    5   65 1    
    11    5   71 1    
    12    6    7 1    
    13    6   72 1    
    14    6   73 1    
    15    7    8 1    
    16    8    9 1    
    17    8   74 1    
    18    8   75 1    
    19    9   10 ar   
    20    9   14 ar   
    21   10   11 ar   
    22   10   76 1    
    23   11   12 ar   
    24   11   48 1    
    25   12   13 ar   
    26   12   77 1    
    27   13   14 ar   
    28   13   15 1    
    29   14   78 1    
    30   15   16 1    
    31   15   79 1    
    32   15   80 1    
    33   16   17 1    
    34   17   18 1    
    35   17   81 1    
    36   17   82 1    
    37   18   19 1    
    38   18   22 1    
    39   18   83 1    
    40   19   20 am   BACKBONE|DICT|INTERRES
    41   19   21 2    
    42   20   84 1    
    43   20   85 1    
    44   22   23 am   BACKBONE|DICT|INTERRES
    45   22   86 1    
    46   23   24 2    
    47   23   25 1    
    48   25   26 1    
    49   25   27 1    
    50   25   87 1    
    51   26   88 1    
    52   26   89 1    
    53   26   90 1    
    54   27   28 am   BACKBONE|DICT|INTERRES
    55   27   91 1    
    56   28   29 2    
    57   28   30 1    
    58   30   31 1    
    59   30   32 1    
    60   30   92 1    
    61   31   93 1    
    62   31   94 1    
    63   31   95 1    
    64   32   33 am   BACKBONE|DICT|INTERRES
    65   32   96 1    
    66   33   34 2    
    67   33   35 1    
    68   35   36 1    
    69   35   37 1    
    70   35   97 1    
    71   36   98 1    
    72   36   99 1    
    73   36  100 1    
    74   37   38 am   BACKBONE|DICT|INTERRES
    75   37  101 1    
    76   38   39 2    
    77   38   40 1    
    78   40   41 1    
    79   40   42 1    
    80   40  102 1    
    81   41  103 1    
    82   41  104 1    
    83   41  105 1    
    84   42   43 am   BACKBONE|DICT|INTERRES
    85   42  106 1    
    86   43   44 2    
    87   43   45 1    
    88   45   46 1    
    89   45   49 1    
    90   45  107 1    
    91   46   47 1    
    92   46  108 1    
    93   46  109 1    
    94   47   48 1    
    95   48  110 1    
    96   48  111 1    
    97   49   50 am   BACKBONE|DICT|INTERRES
    98   49  112 1    
    99   50   51 2    
   100   50   52 1    
   101   52   53 1    
   102   52   54 1    
   103   52  113 1    
   104   53  114 1    
   105   53  115 1    
   106   53  116 1    
   107   54   55 am   BACKBONE|DICT|INTERRES
   108   54  117 1    
   109   55   56 2    
   110   55   57 1    
   111   57   58 1    
   112   57   59 1    
   113   57  118 1    
   114   58  119 1    
   115   58  120 1    
   116   58  121 1    
   117   59   60 am   BACKBONE|DICT|INTERRES
   118   59  122 1    
   119   60   61 2    
   120   60   62 1    
   121   62   63 1    
   122   62   64 1    
   123   62  123 1    
   124   63  124 1    
   125   63  125 1    
   126   63  126 1    
   127   64   65 am   BACKBONE|DICT|INTERRES
   128   64  127 1    
   129   65   66 2    
@<TRIPOS>SUBSTRUCTURE
     1 UNK         1 GROUP             0       ****    0 ROOT    
