@<TRIPOS>MOLECULE
3R134
127   129    1
SMALL
USER_CHARGES


@<TRIPOS>ATOM
      1 CA         38.8140  -44.2728  -52.2538 C.3       0 UNK        -0.1968 
      2 C          38.2057  -45.5294  -52.8589 C.2       0 UNK         0.4852 
      3 O          38.6858  -46.6313  -52.5890 O.2       0 UNK        -0.5359 
      4 N          37.1544  -45.3718  -53.6749 N.am      1 UNK        -0.4300 
      5 CA         36.4206  -46.4643  -54.3277 C.3       1 UNK         0.0863 
      6 C6         35.6190  -45.9607  -55.5535 C.3       11 UNK        -0.0953 
      7 S7         34.4355  -44.6203  -55.1803 S.3       11 UNK        -0.2369 
      8 C8         32.8643  -45.4941  -55.4237 C.3       11 UNK         0.0226 
      9 C9         31.6774  -44.6002  -55.1172 C.ar      11 UNK        -0.0699 
     10 C10        31.1169  -44.6123  -53.8394 C.ar      11 UNK        -0.0804 
     11 C11        29.9777  -43.8544  -53.5580 C.ar      11 UNK        -0.0871 
     12 C12        29.4325  -43.0362  -54.5512 C.ar      11 UNK        -0.1008 
     13 C13        30.0001  -42.9971  -55.8286 C.ar      11 UNK        -0.0735 
     14 C14        31.1188  -43.7887  -56.1093 C.ar      11 UNK        -0.0945 
     15 C15        29.4054  -42.1015  -56.9055 C.3       11 UNK         0.0169 
     16 S16        28.1882  -42.9899  -57.9249 S.3       11 UNK        -0.2669 
     17 C17        26.7888  -43.1631  -56.7591 C.3       11 UNK        -0.0850 
     18 CA         25.4035  -43.2215  -57.4551 C.3       10 UNK         0.0855 
     19 C          24.9570  -41.8362  -58.0105 C.2       10 UNK         0.5543 
     20 N          24.7015  -41.6874  -59.3047 N.am      10 UNK        -0.7343 
     21 O          24.8263  -40.8829  -57.2466 O.2       10 UNK        -0.5027 
     22 N          25.3476  -44.3336  -58.4143 N.am      10 UNK        -0.4495 
     23 C          24.2382  -44.9539  -58.8343 C.2       10 UNK         0.4903 
     24 O          23.1022  -44.6538  -58.4669 O.2       10 UNK        -0.4860 
     25 CA         24.4248  -46.1102  -59.8366 C.3       9 UNK         0.0227 
     26 CB         24.1216  -45.6330  -61.2665 C.3       9 UNK        -0.1964 
     27 N          25.7665  -46.7057  -59.7994 N.am      9 UNK        -0.4231 
     28 C          26.2409  -47.4470  -58.7885 C.2       9 UNK         0.5014 
     29 O          25.5808  -47.7508  -57.7921 O.2       9 UNK        -0.5270 
     30 CA         27.7172  -47.8654  -58.8998 C.3       8 UNK         0.0284 
     31 CB         28.6343  -46.7254  -58.4227 C.3       8 UNK        -0.1977 
     32 N          28.0175  -49.0615  -58.1149 N.am      8 UNK        -0.4342 
     33 C          27.5885  -50.2993  -58.3914 C.2       8 UNK         0.5039 
     34 O          26.9163  -50.5896  -59.3826 O.2       8 UNK        -0.5547 
     35 CA         27.9918  -51.4046  -57.4043 C.3       7 UNK         0.0281 
     36 CB         29.4266  -51.8831  -57.6850 C.3       7 UNK        -0.1963 
     37 N          27.8913  -50.9542  -56.0145 N.am      7 UNK        -0.4444 
     38 C          26.7955  -51.0749  -55.2530 C.2       7 UNK         0.5104 
     39 O          25.7476  -51.5927  -55.6409 O.2       7 UNK        -0.5100 
     40 CA         26.8801  -50.5658  -53.8012 C.3       6 UNK         0.0396 
     41 CB         27.1176  -51.7407  -52.8390 C.3       6 UNK        -0.1801 
     42 N          27.9316  -49.5672  -53.5969 N.am      6 UNK        -0.4747 
     43 C          27.8176  -48.2690  -53.9216 C.2       6 UNK         0.5012 
     44 O          26.7938  -47.7722  -54.3894 O.2       6 UNK        -0.5003 
     45 CA         29.0667  -47.3825  -53.7036 C.3       5 UNK         0.0782 
     46 C46        29.0437  -46.7629  -52.2781 C.3       11 UNK        -0.0868 
     47 S47        28.0368  -45.2439  -52.1709 S.3       11 UNK        -0.2515 
     48 C48        29.3168  -43.9462  -52.1922 C.3       11 UNK         0.0199 
     49 N          30.3291  -48.0963  -53.9586 N.am      5 UNK        -0.4607 
     50 C          30.6312  -48.7746  -55.0787 C.2       4 UNK         0.5031 
     51 O          29.9321  -48.7459  -56.0894 O.2       4 UNK        -0.5119 
     52 CA         31.8489  -49.7229  -55.0657 C.3       4 UNK         0.0263 
     53 CB         32.9439  -49.2543  -56.0345 C.3       4 UNK        -0.1967 
     54 N          32.4236  -49.9567  -53.7385 N.am      4 UNK        -0.4237 
     55 C          31.7733  -50.5383  -52.7184 C.2       3 UNK         0.4908 
     56 O          30.6448  -51.0232  -52.8224 O.2       3 UNK        -0.5102 
     57 CA         32.4522  -50.5243  -51.3368 C.3       3 UNK         0.0241 
     58 CB         33.0487  -51.9056  -51.0226 C.3       3 UNK        -0.1971 
     59 N          33.4899  -49.5011  -51.1555 N.am      3 UNK        -0.4139 
     60 C          33.3531  -48.1760  -51.3207 C.2       2 UNK         0.5016 
     61 O          32.3190  -47.6368  -51.7167 O.2       2 UNK        -0.5319 
     62 CA         34.5835  -47.3006  -51.0119 C.3       2 UNK         0.0286 
     63 CB         35.6806  -48.0289  -50.2021 C.3       2 UNK        -0.1963 
     64 N          35.1847  -46.6907  -52.2050 N.am      2 UNK        -0.4790 
     65 C          35.5631  -47.2966  -53.3437 C.2       1 UNK         0.5024 
     66 O          35.3016  -48.4692  -53.6200 O.2       1 UNK        -0.4888 
     67 H67        38.2962  -43.3708  -52.5795 H         1 UNK         0.0892 
     68 H68        38.7642  -44.3185  -51.1663 H         1 UNK         0.0892 
     69 H69        39.8607  -44.1858  -52.5439 H         1 UNK         0.0892 
     70 H70        36.8050  -44.4433  -53.8690 H         1 UNK         0.3107 
     71 H71        37.1705  -47.1584  -54.7142 H         1 UNK         0.0773 
     72 H72        35.1117  -46.7892  -56.0489 H         1 UNK         0.0680 
     73 H73        36.3164  -45.5730  -56.2977 H         1 UNK         0.0680 
     74 H74        32.8009  -45.8648  -56.4480 H         1 UNK         0.0650 
     75 H75        32.8403  -46.3657  -54.7687 H         1 UNK         0.0650 
     76 H76        31.5521  -45.2414  -53.0750 H         1 UNK         0.1397 
     77 H77        28.5566  -42.4414  -54.3322 H         1 UNK         0.1363 
     78 H78        31.5522  -43.7758  -57.1001 H         1 UNK         0.1355 
     79 H79        28.9427  -41.2188  -56.4611 H         1 UNK         0.0707 
     80 H80        30.2006  -41.7309  -57.5541 H         1 UNK         0.0707 
     81 H81        26.8090  -42.3491  -56.0324 H         1 UNK         0.1034 
     82 H82        26.9460  -44.0749  -56.1800 H         1 UNK         0.1034 
     83 H83        24.6782  -43.4522  -56.6723 H         1 UNK         0.0482 
     84 H84        24.8058  -42.4651  -59.9354 H         1 UNK         0.3460 
     85 H85        24.4079  -40.7880  -59.6519 H         1 UNK         0.3460 
     86 H86        26.2383  -44.6277  -58.7852 H         1 UNK         0.2989 
     87 H87        23.7023  -46.8870  -59.5771 H         1 UNK         0.0559 
     88 H88        24.8230  -44.8659  -61.5966 H         1 UNK         0.0848 
     89 H89        23.1193  -45.2067  -61.3313 H         1 UNK         0.0848 
     90 H90        24.1651  -46.4576  -61.9783 H         1 UNK         0.0848 
     91 H91        26.3734  -46.5059  -60.5821 H         1 UNK         0.3144 
     92 H92        27.9418  -48.0850  -59.9457 H         1 UNK         0.0727 
     93 H93        28.4244  -46.4440  -57.3892 H         1 UNK         0.0790 
     94 H94        28.5084  -45.8339  -59.0373 H         1 UNK         0.0790 
     95 H95        29.6856  -47.0088  -58.4811 H         1 UNK         0.0790 
     96 H96        28.6009  -48.9216  -57.2918 H         1 UNK         0.3215 
     97 H97        27.3211  -52.2528  -57.5595 H         1 UNK         0.0863 
     98 H98        30.1538  -51.0768  -57.5837 H         1 UNK         0.0808 
     99 H99        29.5132  -52.2709  -58.7008 H         1 UNK         0.0808 
    100 H100       29.7175  -52.6853  -57.0066 H         1 UNK         0.0808 
    101 H101       28.6830  -50.4500  -55.6389 H         1 UNK         0.3118 
    102 H102       25.9161  -50.1166  -53.5527 H         1 UNK         0.0546 
    103 H103       27.1159  -51.4102  -51.8003 H         1 UNK         0.0828 
    104 H104       28.0710  -52.2344  -53.0321 H         1 UNK         0.0828 
    105 H105       26.3343  -52.4933  -52.9398 H         1 UNK         0.0828 
    106 H106       28.8142  -49.9060  -53.2282 H         1 UNK         0.3005 
    107 H107       29.0202  -46.5804  -54.4440 H         1 UNK         0.1257 
    108 H108       30.0497  -46.5146  -51.9465 H         1 UNK         0.0775 
    109 H109       28.6816  -47.4778  -51.5362 H         1 UNK         0.0775 
    110 H110       28.8560  -42.9905  -51.9377 H         1 UNK         0.0840 
    111 H111       30.0586  -44.1412  -51.4160 H         1 UNK         0.0840 
    112 H112       30.9809  -48.1339  -53.1809 H         1 UNK         0.2987 
    113 H113       31.4839  -50.6860  -55.4284 H         1 UNK         0.0785 
    114 H114       33.7071  -50.0215  -56.1656 H         1 UNK         0.0798 
    115 H115       32.5336  -49.0347  -57.0214 H         1 UNK         0.0798 
    116 H116       33.4399  -48.3560  -55.6767 H         1 UNK         0.0798 
    117 H117       33.3431  -49.5667  -53.5648 H         1 UNK         0.3079 
    118 H118       31.6690  -50.3159  -50.6053 H         1 UNK         0.0794 
    119 H119       33.4296  -51.9523  -50.0021 H         1 UNK         0.0786 
    120 H120       33.8668  -52.1548  -51.6998 H         1 UNK         0.0786 
    121 H121       32.2952  -52.6889  -51.1195 H         1 UNK         0.0786 
    122 H122       34.3951  -49.8369  -50.8602 H         1 UNK         0.3032 
    123 H123       34.2116  -46.4800  -50.3959 H         1 UNK         0.1094 
    124 H124       35.2782  -48.4647  -49.2863 H         1 UNK         0.0794 
    125 H125       36.1581  -48.8252  -50.7746 H         1 UNK         0.0794 
    126 H126       36.4651  -47.3339  -49.9014 H         1 UNK         0.0794 
    127 H127       35.4101  -45.7098  -52.1188 H         1 UNK         0.3016 
@<TRIPOS>BOND
     1    1    2 1    
     2    1   67 1    
     3    1   68 1    
     4    1   69 1    
     5    2    3 2    
     6    2    4 am   BACKBONE|DICT|INTERRES
     7    4    5 1    
     8    4   70 1    
     9    5    6 1    
    10    5   65 1    
    11    5   71 1    
    12    6    7 1    
    13    6   72 1    
    14    6   73 1    
    15    7    8 1    
    16    8    9 1    
    17    8   74 1    
    18    8   75 1    
    19    9   10 ar   
    20    9   14 ar   
    21   10   11 ar   
    22   10   76 1    
    23   11   12 ar   
    24   11   48 1    
    25   12   13 ar   
    26   12   77 1    
    27   13   14 ar   
    28   13   15 1    
    29   14   78 1    
    30   15   16 1    
    31   15   79 1    
    32   15   80 1    
    33   16   17 1    
    34   17   18 1    
    35   17   81 1    
    36   17   82 1    
    37   18   19 1    
    38   18   22 1    
    39   18   83 1    
    40   19   20 am   BACKBONE|DICT|INTERRES
    41   19   21 2    
    42   20   84 1    
    43   20   85 1    
    44   22   23 am   BACKBONE|DICT|INTERRES
    45   22   86 1    
    46   23   24 2    
    47   23   25 1    
    48   25   26 1    
    49   25   27 1    
    50   25   87 1    
    51   26   88 1    
    52   26   89 1    
    53   26   90 1    
    54   27   28 am   BACKBONE|DICT|INTERRES
    55   27   91 1    
    56   28   29 2    
    57   28   30 1    
    58   30   31 1    
    59   30   32 1    
    60   30   92 1    
    61   31   93 1    
    62   31   94 1    
    63   31   95 1    
    64   32   33 am   BACKBONE|DICT|INTERRES
    65   32   96 1    
    66   33   34 2    
    67   33   35 1    
    68   35   36 1    
    69   35   37 1    
    70   35   97 1    
    71   36   98 1    
    72   36   99 1    
    73   36  100 1    
    74   37   38 am   BACKBONE|DICT|INTERRES
    75   37  101 1    
    76   38   39 2    
    77   38   40 1    
    78   40   41 1    
    79   40   42 1    
    80   40  102 1    
    81   41  103 1    
    82   41  104 1    
    83   41  105 1    
    84   42   43 am   BACKBONE|DICT|INTERRES
    85   42  106 1    
    86   43   44 2    
    87   43   45 1    
    88   45   46 1    
    89   45   49 1    
    90   45  107 1    
    91   46   47 1    
    92   46  108 1    
    93   46  109 1    
    94   47   48 1    
    95   48  110 1    
    96   48  111 1    
    97   49   50 am   BACKBONE|DICT|INTERRES
    98   49  112 1    
    99   50   51 2    
   100   50   52 1    
   101   52   53 1    
   102   52   54 1    
   103   52  113 1    
   104   53  114 1    
   105   53  115 1    
   106   53  116 1    
   107   54   55 am   BACKBONE|DICT|INTERRES
   108   54  117 1    
   109   55   56 2    
   110   55   57 1    
   111   57   58 1    
   112   57   59 1    
   113   57  118 1    
   114   58  119 1    
   115   58  120 1    
   116   58  121 1    
   117   59   60 am   BACKBONE|DICT|INTERRES
   118   59  122 1    
   119   60   61 2    
   120   60   62 1    
   121   62   63 1    
   122   62   64 1    
   123   62  123 1    
   124   63  124 1    
   125   63  125 1    
   126   63  126 1    
   127   64   65 am   BACKBONE|DICT|INTERRES
   128   64  127 1    
   129   65   66 2    
@<TRIPOS>SUBSTRUCTURE
     1 UNK         1 GROUP             0       ****    0 ROOT    
