@<TRIPOS>MOLECULE
3R134
127   129    1
SMALL
USER_CHARGES


@<TRIPOS>ATOM
      1 CA         29.0300  -45.8408  -48.3856 C.3       0 UNK        -0.1968 
      2 C          29.7319  -46.2130  -49.6836 C.2       0 UNK         0.4852 
      3 O          29.5360  -47.3213  -50.1823 O.2       0 UNK        -0.5359 
      4 N          30.5448  -45.2943  -50.2248 N.am      1 UNK        -0.4300 
      5 CA         31.3242  -45.4379  -51.4617 C.3       1 UNK         0.0863 
      6 C6         30.4443  -45.4710  -52.7435 C.3       11 UNK        -0.0953 
      7 S7         29.5525  -43.8985  -52.9873 S.3       11 UNK        -0.2369 
      8 C8         30.8023  -42.8950  -53.8574 C.3       11 UNK         0.0226 
      9 C9         31.0602  -43.3954  -55.2710 C.ar      11 UNK        -0.0699 
     10 C10        32.1891  -44.1678  -55.5610 C.ar      11 UNK        -0.0804 
     11 C11        32.4076  -44.6530  -56.8546 C.ar      11 UNK        -0.0871 
     12 C12        31.5039  -44.3208  -57.8719 C.ar      11 UNK        -0.1008 
     13 C13        30.3660  -43.5599  -57.5907 C.ar      11 UNK        -0.0735 
     14 C14        30.1548  -43.0957  -56.2899 C.ar      11 UNK        -0.0945 
     15 C15        29.3229  -43.2996  -58.6657 C.3       11 UNK         0.0169 
     16 S16        29.0866  -41.5202  -58.9663 S.3       11 UNK        -0.2669 
     17 C17        27.3291  -41.4770  -59.4601 C.3       11 UNK        -0.0850 
     18 CA         26.4113  -40.9018  -58.3401 C.3       10 UNK         0.0855 
     19 C          24.9709  -40.5768  -58.8468 C.2       10 UNK         0.5543 
     20 N          23.9460  -40.6443  -58.0057 N.am      10 UNK        -0.7343 
     21 O          24.7784  -40.2250  -60.0084 O.2       10 UNK        -0.5027 
     22 N          26.4674  -41.6755  -57.0818 N.am      10 UNK        -0.4495 
     23 C          26.0244  -42.9272  -56.8988 C.2       10 UNK         0.4903 
     24 O          25.5113  -43.6149  -57.7847 O.2       10 UNK        -0.4860 
     25 CA         26.1425  -43.4759  -55.4654 C.3       9 UNK         0.0227 
     26 CB         25.1098  -42.8065  -54.5415 C.3       9 UNK        -0.1964 
     27 N          25.9336  -44.9244  -55.4255 N.am      9 UNK        -0.4231 
     28 C          26.8747  -45.8402  -55.6818 C.2       9 UNK         0.5014 
     29 O          28.0507  -45.5766  -55.9330 O.2       9 UNK        -0.5270 
     30 CA         26.4121  -47.3030  -55.6945 C.3       8 UNK         0.0284 
     31 CB         26.2168  -47.7950  -57.1381 C.3       8 UNK        -0.1977 
     32 N          27.3946  -48.1529  -55.0235 N.am      8 UNK        -0.4342 
     33 C          27.4456  -48.3464  -53.6969 C.2       8 UNK         0.5039 
     34 O          26.6437  -47.8324  -52.9142 O.2       8 UNK        -0.5547 
     35 CA         28.5587  -49.2676  -53.1436 C.3       7 UNK         0.0281 
     36 CB         28.1216  -50.0323  -51.8760 C.3       7 UNK        -0.1963 
     37 N          29.1185  -50.1911  -54.1376 N.am      7 UNK        -0.4444 
     38 C          28.4648  -51.1387  -54.8288 C.2       7 UNK         0.5104 
     39 O          27.2875  -51.4421  -54.6298 O.2       7 UNK        -0.5100 
     40 CA         29.2491  -51.8496  -55.9523 C.3       6 UNK         0.0396 
     41 CB         28.3305  -52.3038  -57.1059 C.3       6 UNK        -0.1801 
     42 N          30.3829  -51.0789  -56.4832 N.am      6 UNK        -0.4747 
     43 C          30.3604  -49.8511  -57.0332 C.2       6 UNK         0.5012 
     44 O          29.3304  -49.1842  -57.1373 O.2       6 UNK        -0.5003 
     45 CA         31.7042  -49.2643  -57.5231 C.3       5 UNK         0.0782 
     46 C46        31.7979  -47.7354  -57.2879 C.3       11 UNK        -0.0868 
     47 S47        33.2262  -47.0061  -58.1617 S.3       11 UNK        -0.2515 
     48 C48        33.6125  -45.5503  -57.1285 C.3       11 UNK         0.0199 
     49 N          32.8217  -49.9683  -56.8901 N.am      5 UNK        -0.4607 
     50 C          33.6718  -50.8005  -57.5042 C.2       4 UNK         0.5031 
     51 O          33.6625  -51.0237  -58.7147 O.2       4 UNK        -0.5119 
     52 CA         34.6911  -51.5363  -56.6113 C.3       4 UNK         0.0263 
     53 CB         36.0419  -50.8026  -56.6300 C.3       4 UNK        -0.1967 
     54 N          34.2471  -51.6897  -55.2211 N.am      4 UNK        -0.4237 
     55 C          33.1697  -52.3857  -54.8269 C.2       3 UNK         0.4908 
     56 O          32.4803  -53.0625  -55.5889 O.2       3 UNK        -0.5102 
     57 CA         32.7445  -52.2497  -53.3539 C.3       3 UNK         0.0241 
     58 CB         33.2798  -53.4298  -52.5278 C.3       3 UNK        -0.1971 
     59 N          33.1654  -50.9874  -52.7341 N.am      3 UNK        -0.4139 
     60 C          32.7430  -49.7702  -53.1029 C.2       2 UNK         0.5016 
     61 O          31.9383  -49.5626  -54.0167 O.2       2 UNK        -0.5319 
     62 CA         33.3849  -48.5854  -52.3804 C.3       2 UNK         0.0286 
     63 CB         34.6640  -48.1411  -53.1129 C.3       2 UNK        -0.1963 
     64 N          32.4397  -47.4737  -52.3397 N.am      2 UNK        -0.4790 
     65 C          32.3549  -46.5845  -51.3422 C.2       1 UNK         0.5024 
     66 O          33.0856  -46.6182  -50.3488 O.2       1 UNK        -0.4888 
     67 H67        29.3120  -46.5351  -47.5947 H         1 UNK         0.0892 
     68 H68        27.9495  -45.8936  -48.5168 H         1 UNK         0.0892 
     69 H69        29.2826  -44.8324  -48.0583 H         1 UNK         0.0892 
     70 H70        30.6755  -44.4165  -49.7423 H         1 UNK         0.3107 
     71 H71        31.9405  -44.5399  -51.5195 H         1 UNK         0.0773 
     72 H72        29.7045  -46.2694  -52.6858 H         1 UNK         0.0680 
     73 H73        31.0325  -45.6732  -53.6372 H         1 UNK         0.0680 
     74 H74        30.4517  -41.8628  -53.8994 H         1 UNK         0.0650 
     75 H75        31.7271  -42.8765  -53.2794 H         1 UNK         0.0650 
     76 H76        32.8859  -44.4110  -54.7705 H         1 UNK         0.1397 
     77 H77        31.6642  -44.6930  -58.8744 H         1 UNK         0.1363 
     78 H78        29.2684  -42.5199  -56.0661 H         1 UNK         0.1355 
     79 H79        29.5943  -43.7836  -59.6050 H         1 UNK         0.0707 
     80 H80        28.3884  -43.7591  -58.3434 H         1 UNK         0.0707 
     81 H81        26.9914  -42.4671  -59.7701 H         1 UNK         0.1034 
     82 H82        27.2729  -40.8546  -60.3549 H         1 UNK         0.1034 
     83 H83        26.8165  -39.9231  -58.0803 H         1 UNK         0.0482 
     84 H84        24.0889  -40.9194  -57.0477 H         1 UNK         0.3460 
     85 H85        23.0201  -40.4223  -58.3363 H         1 UNK         0.3460 
     86 H86        26.8515  -41.1784  -56.2913 H         1 UNK         0.2989 
     87 H87        27.1427  -43.2512  -55.0890 H         1 UNK         0.0559 
     88 H88        24.0884  -42.9745  -54.8857 H         1 UNK         0.0848 
     89 H89        25.2631  -41.7280  -54.4893 H         1 UNK         0.0848 
     90 H90        25.1865  -43.1873  -53.5226 H         1 UNK         0.0848 
     91 H91        24.9832  -45.2351  -55.2861 H         1 UNK         0.3144 
     92 H92        25.4550  -47.3863  -55.1747 H         1 UNK         0.0727 
     93 H93        25.4475  -47.2127  -57.6470 H         1 UNK         0.0790 
     94 H94        25.9077  -48.8401  -57.1641 H         1 UNK         0.0790 
     95 H95        27.1333  -47.7019  -57.7225 H         1 UNK         0.0790 
     96 H96        28.1127  -48.5591  -55.6158 H         1 UNK         0.3215 
     97 H97        29.3786  -48.6090  -52.8562 H         1 UNK         0.0863 
     98 H98        28.9286  -50.6561  -51.4920 H         1 UNK         0.0808 
     99 H99        27.2586  -50.6715  -52.0633 H         1 UNK         0.0808 
    100 H100       27.8451  -49.3404  -51.0796 H         1 UNK         0.0808 
    101 H101       30.0991  -50.0334  -54.3595 H         1 UNK         0.3118 
    102 H102       29.6773  -52.7442  -55.4984 H         1 UNK         0.0546 
    103 H103       27.5666  -52.9970  -56.7519 H         1 UNK         0.0828 
    104 H104       28.8946  -52.8187  -57.8834 H         1 UNK         0.0828 
    105 H105       27.8153  -51.4604  -57.5670 H         1 UNK         0.0828 
    106 H106       31.2774  -51.5524  -56.4203 H         1 UNK         0.3005 
    107 H107       31.7146  -49.4375  -58.6016 H         1 UNK         0.1257 
    108 H108       31.8651  -47.5155  -56.2204 H         1 UNK         0.0775 
    109 H109       30.9045  -47.2232  -57.6506 H         1 UNK         0.0775 
    110 H110       34.0470  -45.9054  -56.1926 H         1 UNK         0.0840 
    111 H111       34.3852  -44.9613  -57.6238 H         1 UNK         0.0840 
    112 H112       32.8745  -49.8607  -55.8841 H         1 UNK         0.2987 
    113 H113       34.8328  -52.5352  -57.0295 H         1 UNK         0.0785 
    114 H114       36.4139  -50.6976  -57.6503 H         1 UNK         0.0798 
    115 H115       36.7991  -51.3477  -56.0661 H         1 UNK         0.0798 
    116 H116       35.9629  -49.7996  -56.2082 H         1 UNK         0.0798 
    117 H117       34.7638  -51.1769  -54.5223 H         1 UNK         0.3079 
    118 H118       31.6528  -52.2815  -53.3288 H         1 UNK         0.0794 
    119 H119       34.3701  -53.4400  -52.4945 H         1 UNK         0.0786 
    120 H120       32.9580  -54.3816  -52.9533 H         1 UNK         0.0786 
    121 H121       32.9117  -53.3961  -51.5022 H         1 UNK         0.0786 
    122 H122       33.8345  -51.0618  -51.9805 H         1 UNK         0.3032 
    123 H123       33.6341  -48.8974  -51.3631 H         1 UNK         0.1094 
    124 H124       34.4554  -47.8366  -54.1397 H         1 UNK         0.0794 
    125 H125       35.1383  -47.3004  -52.6063 H         1 UNK         0.0794 
    126 H126       35.3978  -48.9470  -53.1522 H         1 UNK         0.0794 
    127 H127       31.7814  -47.4478  -53.1071 H         1 UNK         0.3016 
@<TRIPOS>BOND
     1    1    2 1    
     2    1   67 1    
     3    1   68 1    
     4    1   69 1    
     5    2    3 2    
     6    2    4 am   BACKBONE|DICT|INTERRES
     7    4    5 1    
     8    4   70 1    
     9    5    6 1    
    10    5   65 1    
    11    5   71 1    
    12    6    7 1    
    13    6   72 1    
    14    6   73 1    
    15    7    8 1    
    16    8    9 1    
    17    8   74 1    
    18    8   75 1    
    19    9   10 ar   
    20    9   14 ar   
    21   10   11 ar   
    22   10   76 1    
    23   11   12 ar   
    24   11   48 1    
    25   12   13 ar   
    26   12   77 1    
    27   13   14 ar   
    28   13   15 1    
    29   14   78 1    
    30   15   16 1    
    31   15   79 1    
    32   15   80 1    
    33   16   17 1    
    34   17   18 1    
    35   17   81 1    
    36   17   82 1    
    37   18   19 1    
    38   18   22 1    
    39   18   83 1    
    40   19   20 am   BACKBONE|DICT|INTERRES
    41   19   21 2    
    42   20   84 1    
    43   20   85 1    
    44   22   23 am   BACKBONE|DICT|INTERRES
    45   22   86 1    
    46   23   24 2    
    47   23   25 1    
    48   25   26 1    
    49   25   27 1    
    50   25   87 1    
    51   26   88 1    
    52   26   89 1    
    53   26   90 1    
    54   27   28 am   BACKBONE|DICT|INTERRES
    55   27   91 1    
    56   28   29 2    
    57   28   30 1    
    58   30   31 1    
    59   30   32 1    
    60   30   92 1    
    61   31   93 1    
    62   31   94 1    
    63   31   95 1    
    64   32   33 am   BACKBONE|DICT|INTERRES
    65   32   96 1    
    66   33   34 2    
    67   33   35 1    
    68   35   36 1    
    69   35   37 1    
    70   35   97 1    
    71   36   98 1    
    72   36   99 1    
    73   36  100 1    
    74   37   38 am   BACKBONE|DICT|INTERRES
    75   37  101 1    
    76   38   39 2    
    77   38   40 1    
    78   40   41 1    
    79   40   42 1    
    80   40  102 1    
    81   41  103 1    
    82   41  104 1    
    83   41  105 1    
    84   42   43 am   BACKBONE|DICT|INTERRES
    85   42  106 1    
    86   43   44 2    
    87   43   45 1    
    88   45   46 1    
    89   45   49 1    
    90   45  107 1    
    91   46   47 1    
    92   46  108 1    
    93   46  109 1    
    94   47   48 1    
    95   48  110 1    
    96   48  111 1    
    97   49   50 am   BACKBONE|DICT|INTERRES
    98   49  112 1    
    99   50   51 2    
   100   50   52 1    
   101   52   53 1    
   102   52   54 1    
   103   52  113 1    
   104   53  114 1    
   105   53  115 1    
   106   53  116 1    
   107   54   55 am   BACKBONE|DICT|INTERRES
   108   54  117 1    
   109   55   56 2    
   110   55   57 1    
   111   57   58 1    
   112   57   59 1    
   113   57  118 1    
   114   58  119 1    
   115   58  120 1    
   116   58  121 1    
   117   59   60 am   BACKBONE|DICT|INTERRES
   118   59  122 1    
   119   60   61 2    
   120   60   62 1    
   121   62   63 1    
   122   62   64 1    
   123   62  123 1    
   124   63  124 1    
   125   63  125 1    
   126   63  126 1    
   127   64   65 am   BACKBONE|DICT|INTERRES
   128   64  127 1    
   129   65   66 2    
@<TRIPOS>SUBSTRUCTURE
     1 UNK         1 GROUP             0       ****    0 ROOT    
