@<TRIPOS>MOLECULE
3R134
127   129    1
SMALL
USER_CHARGES


@<TRIPOS>ATOM
      1 CA         33.3165  -48.4074  -58.5976 C.3       0 UNK        -0.1968 
      2 C          33.2067  -48.1084  -57.1108 C.2       0 UNK         0.4852 
      3 O          32.7142  -48.9438  -56.3544 O.2       0 UNK        -0.5359 
      4 N          33.6869  -46.9311  -56.6855 N.am      1 UNK        -0.4300 
      5 CA         33.6113  -46.4045  -55.3122 C.3       1 UNK         0.0863 
      6 C6         34.2147  -44.9817  -55.2140 C.3       11 UNK        -0.0953 
      7 S7         33.4703  -43.8053  -56.3951 S.3       11 UNK        -0.2369 
      8 C8         33.3454  -42.2914  -55.3946 C.3       11 UNK         0.0226 
      9 C9         32.0270  -42.2100  -54.6391 C.ar      11 UNK        -0.0699 
     10 C10        31.9152  -42.7243  -53.3440 C.ar      11 UNK        -0.0804 
     11 C11        30.7162  -42.6072  -52.6340 C.ar      11 UNK        -0.0871 
     12 C12        29.6217  -41.9721  -53.2301 C.ar      11 UNK        -0.1008 
     13 C13        29.7238  -41.4468  -54.5223 C.ar      11 UNK        -0.0735 
     14 C14        30.9270  -41.5742  -55.2226 C.ar      11 UNK        -0.0945 
     15 C15        28.5548  -40.6944  -55.1448 C.3       11 UNK         0.0169 
     16 S16        27.8082  -41.5942  -56.5386 S.3       11 UNK        -0.2669 
     17 C17        26.9739  -42.9634  -55.6633 C.3       11 UNK        -0.0850 
     18 CA         26.4849  -44.0990  -56.6006 C.3       10 UNK         0.0855 
     19 C          25.2587  -43.6921  -57.4673 C.2       10 UNK         0.5543 
     20 N          25.2431  -43.9713  -58.7655 N.am      10 UNK        -0.7343 
     21 O          24.2917  -43.1367  -56.9513 O.2       10 UNK        -0.5027 
     22 N          27.6024  -44.6619  -57.3754 N.am      10 UNK        -0.4495 
     23 C          28.0395  -45.9205  -57.2990 C.2       10 UNK         0.4903 
     24 O          27.5502  -46.7787  -56.5624 O.2       10 UNK        -0.4860 
     25 CA         29.2416  -46.2631  -58.1886 C.3       9 UNK         0.0227 
     26 CB         30.5343  -45.7164  -57.5662 C.3       9 UNK        -0.1964 
     27 N          29.3377  -47.7151  -58.3114 N.am      9 UNK        -0.4231 
     28 C          29.2866  -48.4200  -59.4456 C.2       9 UNK         0.5014 
     29 O          29.3491  -47.9184  -60.5688 O.2       9 UNK        -0.5270 
     30 CA         29.0805  -49.9438  -59.3170 C.3       8 UNK         0.0284 
     31 CB         30.3854  -50.6633  -58.9191 C.3       8 UNK        -0.1977 
     32 N          27.9511  -50.3070  -58.4419 N.am      8 UNK        -0.4342 
     33 C          27.8525  -50.1338  -57.1175 C.2       8 UNK         0.5039 
     34 O          28.7758  -49.7343  -56.4058 O.2       8 UNK        -0.5547 
     35 CA         26.4865  -50.3868  -56.4763 C.3       7 UNK         0.0281 
     36 CB         26.4158  -51.7861  -55.8362 C.3       7 UNK        -0.1963 
     37 N          26.3075  -49.3335  -55.4816 N.am      7 UNK        -0.4444 
     38 C          25.1658  -48.9730  -54.8878 C.2       7 UNK         0.5104 
     39 O          24.0940  -49.5518  -55.0726 O.2       7 UNK        -0.5100 
     40 CA         25.2220  -47.7646  -53.9323 C.3       6 UNK         0.0396 
     41 CB         24.3130  -47.9471  -52.7017 C.3       6 UNK        -0.1801 
     42 N          26.5896  -47.4694  -53.4941 N.am      6 UNK        -0.4747 
     43 C          27.0815  -46.2466  -53.2444 C.2       6 UNK         0.5012 
     44 O          26.4052  -45.2211  -53.3298 O.2       6 UNK        -0.5003 
     45 CA         28.5588  -46.1428  -52.7966 C.3       5 UNK         0.0782 
     46 C46        28.7123  -45.1680  -51.6005 C.3       11 UNK        -0.0868 
     47 S47        30.4562  -44.9270  -51.1191 S.3       11 UNK        -0.2515 
     48 C48        30.6293  -43.1172  -51.2022 C.3       11 UNK         0.0199 
     49 N          29.0992  -47.4710  -52.4784 N.am      5 UNK        -0.4607 
     50 C          29.9307  -48.1723  -53.2548 C.2       4 UNK         0.5031 
     51 O          30.4070  -47.7571  -54.3109 O.2       4 UNK        -0.5119 
     52 CA         30.2372  -49.5944  -52.7697 C.3       4 UNK         0.0263 
     53 CB         28.9715  -50.4770  -52.8448 C.3       4 UNK        -0.1967 
     54 N          31.3123  -50.1704  -53.5745 N.am      4 UNK        -0.4237 
     55 C          31.9799  -51.2932  -53.2773 C.2       3 UNK         0.4908 
     56 O          31.7671  -51.9773  -52.2750 O.2       3 UNK        -0.5102 
     57 CA         33.0912  -51.7168  -54.2451 C.3       3 UNK         0.0241 
     58 CB         32.5155  -52.1694  -55.5988 C.3       3 UNK        -0.1971 
     59 N          34.0467  -50.6256  -54.4319 N.am      3 UNK        -0.4139 
     60 C          35.0600  -50.3668  -53.5901 C.2       2 UNK         0.5016 
     61 O          35.3339  -51.0707  -52.6168 O.2       2 UNK        -0.5319 
     62 CA         35.9326  -49.1282  -53.8683 C.3       2 UNK         0.0286 
     63 CB         37.2435  -49.5384  -54.5591 C.3       2 UNK        -0.1963 
     64 N          35.2644  -48.1126  -54.6819 N.am      2 UNK        -0.4790 
     65 C          34.2654  -47.3245  -54.2578 C.2       1 UNK         0.5024 
     66 O          33.8565  -47.3107  -53.0965 O.2       1 UNK        -0.4888 
     67 H67        33.6026  -49.4481  -58.7529 H         1 UNK         0.0892 
     68 H68        32.3552  -48.2404  -59.0833 H         1 UNK         0.0892 
     69 H69        34.0606  -47.7756  -59.0840 H         1 UNK         0.0892 
     70 H70        34.0783  -46.2883  -57.3594 H         1 UNK         0.3107 
     71 H71        32.5531  -46.3402  -55.0537 H         1 UNK         0.0773 
     72 H72        35.2900  -45.0061  -55.4017 H         1 UNK         0.0680 
     73 H73        34.0932  -44.5966  -54.2009 H         1 UNK         0.0680 
     74 H74        33.4379  -41.4318  -56.0602 H         1 UNK         0.0650 
     75 H75        34.1888  -42.2261  -54.7056 H         1 UNK         0.0650 
     76 H76        32.7655  -43.2017  -52.8772 H         1 UNK         0.1397 
     77 H77        28.6974  -41.8639  -52.6791 H         1 UNK         0.1363 
     78 H78        31.0100  -41.1631  -56.2196 H         1 UNK         0.1355 
     79 H79        27.7857  -40.4805  -54.4008 H         1 UNK         0.0707 
     80 H80        28.9077  -39.7262  -55.5032 H         1 UNK         0.0707 
     81 H81        27.6725  -43.3858  -54.9401 H         1 UNK         0.1034 
     82 H82        26.1480  -42.5643  -55.0716 H         1 UNK         0.1034 
     83 H83        26.0819  -44.8781  -55.9526 H         1 UNK         0.0482 
     84 H84        26.0170  -44.4513  -59.1955 H         1 UNK         0.3460 
     85 H85        24.4406  -43.7108  -59.3170 H         1 UNK         0.3460 
     86 H86        28.0649  -44.0113  -57.9943 H         1 UNK         0.2989 
     87 H87        29.0887  -45.8023  -59.1665 H         1 UNK         0.0559 
     88 H88        30.7321  -46.1738  -56.5963 H         1 UNK         0.0848 
     89 H89        30.4797  -44.6380  -57.4105 H         1 UNK         0.0848 
     90 H90        31.3912  -45.9032  -58.2118 H         1 UNK         0.0848 
     91 H91        29.2237  -48.2336  -57.4395 H         1 UNK         0.3144 
     92 H92        28.8053  -50.3068  -60.3086 H         1 UNK         0.0727 
     93 H93        30.2354  -51.7390  -58.8294 H         1 UNK         0.0790 
     94 H94        30.7811  -50.3004  -57.9702 H         1 UNK         0.0790 
     95 H95        31.1588  -50.5043  -59.6711 H         1 UNK         0.0790 
     96 H96        27.1258  -50.6244  -58.9326 H         1 UNK         0.3215 
     97 H97        25.7055  -50.2880  -57.2331 H         1 UNK         0.0863 
     98 H98        25.4490  -51.9640  -55.3656 H         1 UNK         0.0808 
     99 H99        27.1867  -51.9270  -55.0793 H         1 UNK         0.0808 
    100 H100       26.5551  -52.5632  -56.5886 H         1 UNK         0.0808 
    101 H101       27.1243  -48.7378  -55.3838 H         1 UNK         0.3118 
    102 H102       24.8475  -46.9183  -54.5119 H         1 UNK         0.0546 
    103 H103       24.6265  -48.7975  -52.0953 H         1 UNK         0.0828 
    104 H104       23.2772  -48.1187  -52.9969 H         1 UNK         0.0828 
    105 H105       24.3212  -47.0609  -52.0672 H         1 UNK         0.0828 
    106 H106       27.2086  -48.2608  -53.3969 H         1 UNK         0.3005 
    107 H107       29.0977  -45.7160  -53.6466 H         1 UNK         0.1257 
    108 H108       28.1672  -45.5384  -50.7304 H         1 UNK         0.0775 
    109 H109       28.2742  -44.1974  -51.8377 H         1 UNK         0.0775 
    110 H110       29.8036  -42.6446  -50.6677 H         1 UNK         0.0840 
    111 H111       31.5347  -42.8301  -50.6655 H         1 UNK         0.0840 
    112 H112       28.7785  -47.8772  -51.6110 H         1 UNK         0.2987 
    113 H113       30.5794  -49.5305  -51.7348 H         1 UNK         0.0785 
    114 H114       29.1564  -51.4870  -52.4807 H         1 UNK         0.0798 
    115 H115       28.6116  -50.5566  -53.8693 H         1 UNK         0.0798 
    116 H116       28.1593  -50.0728  -52.2407 H         1 UNK         0.0798 
    117 H117       31.5449  -49.6376  -54.4091 H         1 UNK         0.3079 
    118 H118       33.6117  -52.5728  -53.8097 H         1 UNK         0.0794 
    119 H119       31.8727  -53.0412  -55.4718 H         1 UNK         0.0786 
    120 H120       33.3073  -52.4477  -56.2942 H         1 UNK         0.0786 
    121 H121       31.9126  -51.3941  -56.0712 H         1 UNK         0.0786 
    122 H122       33.8299  -49.9632  -55.1725 H         1 UNK         0.3032 
    123 H123       36.1788  -48.6835  -52.9012 H         1 UNK         0.1094 
    124 H124       37.9058  -48.6832  -54.6949 H         1 UNK         0.0794 
    125 H125       37.7855  -50.2732  -53.9619 H         1 UNK         0.0794 
    126 H126       37.0625  -49.9841  -55.5380 H         1 UNK         0.0794 
    127 H127       35.5359  -48.0528  -55.6527 H         1 UNK         0.3016 
@<TRIPOS>BOND
     1    1    2 1    
     2    1   67 1    
     3    1   68 1    
     4    1   69 1    
     5    2    3 2    
     6    2    4 am   BACKBONE|DICT|INTERRES
     7    4    5 1    
     8    4   70 1    
     9    5    6 1    
    10    5   65 1    
    11    5   71 1    
    12    6    7 1    
    13    6   72 1    
    14    6   73 1    
    15    7    8 1    
    16    8    9 1    
    17    8   74 1    
    18    8   75 1    
    19    9   10 ar   
    20    9   14 ar   
    21   10   11 ar   
    22   10   76 1    
    23   11   12 ar   
    24   11   48 1    
    25   12   13 ar   
    26   12   77 1    
    27   13   14 ar   
    28   13   15 1    
    29   14   78 1    
    30   15   16 1    
    31   15   79 1    
    32   15   80 1    
    33   16   17 1    
    34   17   18 1    
    35   17   81 1    
    36   17   82 1    
    37   18   19 1    
    38   18   22 1    
    39   18   83 1    
    40   19   20 am   BACKBONE|DICT|INTERRES
    41   19   21 2    
    42   20   84 1    
    43   20   85 1    
    44   22   23 am   BACKBONE|DICT|INTERRES
    45   22   86 1    
    46   23   24 2    
    47   23   25 1    
    48   25   26 1    
    49   25   27 1    
    50   25   87 1    
    51   26   88 1    
    52   26   89 1    
    53   26   90 1    
    54   27   28 am   BACKBONE|DICT|INTERRES
    55   27   91 1    
    56   28   29 2    
    57   28   30 1    
    58   30   31 1    
    59   30   32 1    
    60   30   92 1    
    61   31   93 1    
    62   31   94 1    
    63   31   95 1    
    64   32   33 am   BACKBONE|DICT|INTERRES
    65   32   96 1    
    66   33   34 2    
    67   33   35 1    
    68   35   36 1    
    69   35   37 1    
    70   35   97 1    
    71   36   98 1    
    72   36   99 1    
    73   36  100 1    
    74   37   38 am   BACKBONE|DICT|INTERRES
    75   37  101 1    
    76   38   39 2    
    77   38   40 1    
    78   40   41 1    
    79   40   42 1    
    80   40  102 1    
    81   41  103 1    
    82   41  104 1    
    83   41  105 1    
    84   42   43 am   BACKBONE|DICT|INTERRES
    85   42  106 1    
    86   43   44 2    
    87   43   45 1    
    88   45   46 1    
    89   45   49 1    
    90   45  107 1    
    91   46   47 1    
    92   46  108 1    
    93   46  109 1    
    94   47   48 1    
    95   48  110 1    
    96   48  111 1    
    97   49   50 am   BACKBONE|DICT|INTERRES
    98   49  112 1    
    99   50   51 2    
   100   50   52 1    
   101   52   53 1    
   102   52   54 1    
   103   52  113 1    
   104   53  114 1    
   105   53  115 1    
   106   53  116 1    
   107   54   55 am   BACKBONE|DICT|INTERRES
   108   54  117 1    
   109   55   56 2    
   110   55   57 1    
   111   57   58 1    
   112   57   59 1    
   113   57  118 1    
   114   58  119 1    
   115   58  120 1    
   116   58  121 1    
   117   59   60 am   BACKBONE|DICT|INTERRES
   118   59  122 1    
   119   60   61 2    
   120   60   62 1    
   121   62   63 1    
   122   62   64 1    
   123   62  123 1    
   124   63  124 1    
   125   63  125 1    
   126   63  126 1    
   127   64   65 am   BACKBONE|DICT|INTERRES
   128   64  127 1    
   129   65   66 2    
@<TRIPOS>SUBSTRUCTURE
     1 UNK         1 GROUP             0       ****    0 ROOT    
