@<TRIPOS>MOLECULE
3R134
127   129    1
SMALL
USER_CHARGES


@<TRIPOS>ATOM
      1 CA         32.7988  -41.9000  -52.2570 C.3       0 UNK        -0.1968 
      2 C          34.0816  -42.6340  -52.6129 C.2       0 UNK         0.4852 
      3 O          35.1069  -42.4219  -51.9642 O.2       0 UNK        -0.5359 
      4 N          34.0342  -43.4913  -53.6431 N.am      1 UNK        -0.4300 
      5 CA         35.1816  -44.2678  -54.1322 C.3       1 UNK         0.0863 
      6 C6         35.0150  -44.6543  -55.6293 C.3       11 UNK        -0.0953 
      7 S7         34.1236  -46.2086  -55.9808 S.3       11 UNK        -0.2369 
      8 C8         32.4434  -45.6512  -56.4137 C.3       11 UNK         0.0226 
      9 C9         31.6537  -45.1221  -55.2216 C.ar      11 UNK        -0.0699 
     10 C10        31.5743  -45.8577  -54.0335 C.ar      11 UNK        -0.0804 
     11 C11        30.8493  -45.3742  -52.9374 C.ar      11 UNK        -0.0871 
     12 C12        30.1737  -44.1572  -53.0558 C.ar      11 UNK        -0.1008 
     13 C13        30.2316  -43.4179  -54.2398 C.ar      11 UNK        -0.0735 
     14 C14        30.9801  -43.9006  -55.3170 C.ar      11 UNK        -0.0945 
     15 C15        29.5064  -42.0834  -54.3300 C.3       11 UNK         0.0169 
     16 S16        27.7688  -42.2951  -54.8228 S.3       11 UNK        -0.2669 
     17 C17        27.9272  -42.3070  -56.6384 C.3       11 UNK        -0.0850 
     18 CA         26.6102  -42.7157  -57.3432 C.3       10 UNK         0.0855 
     19 C          26.7199  -42.4783  -58.8737 C.2       10 UNK         0.5543 
     20 N          25.9876  -41.5128  -59.4117 N.am      10 UNK        -0.7343 
     21 O          27.5038  -43.1277  -59.5620 O.2       10 UNK        -0.5027 
     22 N          26.2484  -44.1051  -57.0319 N.am      10 UNK        -0.4495 
     23 C          25.0747  -44.6791  -57.3245 C.2       10 UNK         0.4903 
     24 O          24.1151  -44.0698  -57.8010 O.2       10 UNK        -0.4860 
     25 CA         24.9604  -46.1885  -57.0239 C.3       9 UNK         0.0227 
     26 CB         23.7230  -46.8416  -57.6747 C.3       9 UNK        -0.1964 
     27 N          26.1727  -46.9454  -57.3616 N.am      9 UNK        -0.4231 
     28 C          26.7810  -47.0171  -58.5576 C.2       9 UNK         0.5014 
     29 O          26.4024  -46.4275  -59.5703 O.2       9 UNK        -0.5270 
     30 CA         28.0133  -47.9326  -58.6410 C.3       8 UNK         0.0284 
     31 CB         29.2076  -47.3282  -57.8812 C.3       8 UNK        -0.1977 
     32 N          27.7354  -49.2785  -58.1375 N.am      8 UNK        -0.4342 
     33 C          26.8633  -50.1417  -58.6799 C.2       8 UNK         0.5039 
     34 O          26.2440  -49.9348  -59.7241 O.2       8 UNK        -0.5547 
     35 CA         26.6313  -51.4565  -57.9210 C.3       7 UNK         0.0281 
     36 CB         27.7091  -52.4934  -58.2754 C.3       7 UNK        -0.1963 
     37 N          26.6076  -51.2352  -56.4741 N.am      7 UNK        -0.4444 
     38 C          25.5325  -50.8067  -55.7981 C.2       7 UNK         0.5104 
     39 O          24.4267  -50.6301  -56.3099 O.2       7 UNK        -0.5100 
     40 CA         25.7120  -50.5273  -54.2949 C.3       6 UNK         0.0396 
     41 CB         25.3109  -51.7602  -53.4698 C.3       6 UNK        -0.1801 
     42 N          27.0726  -50.1231  -53.9298 N.am      6 UNK        -0.4747 
     43 C          27.6306  -48.9478  -54.2544 C.2       6 UNK         0.5012 
     44 O          27.0627  -48.0767  -54.9139 O.2       6 UNK        -0.5003 
     45 CA         29.0863  -48.7297  -53.7994 C.3       5 UNK         0.0782 
     46 C46        29.1199  -48.2341  -52.3337 C.3       11 UNK        -0.0868 
     47 S47        30.8148  -47.9254  -51.7299 S.3       11 UNK        -0.2515 
     48 C48        30.8219  -46.1076  -51.5979 C.3       11 UNK         0.0199 
     49 N          29.9484  -49.9021  -54.0006 N.am      5 UNK        -0.4607 
     50 C          30.1470  -50.5494  -55.1566 C.2       4 UNK         0.5031 
     51 O          29.4759  -50.3508  -56.1704 O.2       4 UNK        -0.5119 
     52 CA         31.2938  -51.5837  -55.1813 C.3       4 UNK         0.0263 
     53 CB         31.7387  -51.9269  -56.6187 C.3       4 UNK        -0.1967 
     54 N          32.4656  -51.2050  -54.3729 N.am      4 UNK        -0.4237 
     55 C          33.1657  -50.0626  -54.4567 C.2       3 UNK         0.4908 
     56 O          32.8775  -49.1255  -55.2003 O.2       3 UNK        -0.5102 
     57 CA         34.4086  -49.9496  -53.5704 C.3       3 UNK         0.0241 
     58 CB         35.6898  -50.2116  -54.3811 C.3       3 UNK        -0.1971 
     59 N          34.4507  -48.6081  -52.9946 N.am      3 UNK        -0.4139 
     60 C          34.9370  -48.3130  -51.7834 C.2       2 UNK         0.5016 
     61 O          35.4853  -49.1437  -51.0558 O.2       2 UNK        -0.5319 
     62 CA         34.7493  -46.8700  -51.2723 C.3       2 UNK         0.0286 
     63 CB         35.8209  -46.4574  -50.2395 C.3       2 UNK        -0.1963 
     64 N          34.6199  -45.8522  -52.3245 N.am      2 UNK        -0.4790 
     65 C          35.5536  -45.4528  -53.2047 C.2       1 UNK         0.5024 
     66 O          36.6718  -45.9605  -53.2978 O.2       1 UNK        -0.4888 
     67 H67        32.1842  -42.5091  -51.5949 H         1 UNK         0.0892 
     68 H68        33.0230  -40.9632  -51.7474 H         1 UNK         0.0892 
     69 H69        32.2232  -41.6613  -53.1500 H         1 UNK         0.0892 
     70 H70        33.1604  -43.6445  -54.1299 H         1 UNK         0.3107 
     71 H71        36.0419  -43.5954  -54.0931 H         1 UNK         0.0773 
     72 H72        36.0077  -44.7736  -56.0664 H         1 UNK         0.0680 
     73 H73        34.5574  -43.8373  -56.1895 H         1 UNK         0.0680 
     74 H74        31.9023  -46.5010  -56.8309 H         1 UNK         0.0650 
     75 H75        32.5093  -44.9061  -57.2078 H         1 UNK         0.0650 
     76 H76        32.0918  -46.8040  -53.9658 H         1 UNK         0.1397 
     77 H77        29.6088  -43.7713  -52.2178 H         1 UNK         0.1363 
     78 H78        31.0337  -43.3265  -56.2320 H         1 UNK         0.1355 
     79 H79        29.5337  -41.5870  -53.3587 H         1 UNK         0.0707 
     80 H80        30.0147  -41.4125  -55.0245 H         1 UNK         0.0707 
     81 H81        28.2323  -41.3055  -56.9493 H         1 UNK         0.1034 
     82 H82        28.7364  -42.9781  -56.9308 H         1 UNK         0.1034 
     83 H83        25.8126  -42.0784  -56.9550 H         1 UNK         0.0482 
     84 H84        25.3446  -40.9744  -58.8520 H         1 UNK         0.3460 
     85 H85        26.0615  -41.3341  -60.4011 H         1 UNK         0.3460 
     86 H86        26.9816  -44.6787  -56.6437 H         1 UNK         0.2989 
     87 H87        24.8452  -46.2735  -55.9424 H         1 UNK         0.0559 
     88 H88        23.7491  -46.7603  -58.7619 H         1 UNK         0.0848 
     89 H89        22.8025  -46.3665  -57.3337 H         1 UNK         0.0848 
     90 H90        23.6544  -47.8996  -57.4199 H         1 UNK         0.0848 
     91 H91        26.5816  -47.4595  -56.5823 H         1 UNK         0.3144 
     92 H92        28.2922  -48.0241  -59.6928 H         1 UNK         0.0727 
     93 H93        29.0083  -47.2316  -56.8138 H         1 UNK         0.0790 
     94 H94        29.4476  -46.3334  -58.2594 H         1 UNK         0.0790 
     95 H95        30.1002  -47.9439  -57.9960 H         1 UNK         0.0790 
     96 H96        28.2639  -49.5805  -57.3209 H         1 UNK         0.3215 
     97 H97        25.6650  -51.8587  -58.2342 H         1 UNK         0.0863 
     98 H98        27.5436  -53.4346  -57.7510 H         1 UNK         0.0808 
     99 H99        28.7095  -52.1407  -58.0271 H         1 UNK         0.0808 
    100 H100       27.6993  -52.7114  -59.3442 H         1 UNK         0.0808 
    101 H101       27.4944  -51.2896  -55.9902 H         1 UNK         0.3118 
    102 H102       25.0369  -49.7099  -54.0320 H         1 UNK         0.0546 
    103 H103       25.9606  -52.6125  -53.6726 H         1 UNK         0.0828 
    104 H104       24.2898  -52.0678  -53.7000 H         1 UNK         0.0828 
    105 H105       25.3504  -51.5530  -52.4003 H         1 UNK         0.0828 
    106 H106       27.6226  -50.7848  -53.4003 H         1 UNK         0.3005 
    107 H107       29.4932  -47.9368  -54.4307 H         1 UNK         0.1257 
    108 H108       28.6633  -48.9702  -51.6691 H         1 UNK         0.0775 
    109 H109       28.5262  -47.3238  -52.2273 H         1 UNK         0.0775 
    110 H110       29.9558  -45.8000  -51.0096 H         1 UNK         0.0840 
    111 H111       31.6950  -45.8016  -51.0224 H         1 UNK         0.0840 
    112 H112       30.5537  -50.1259  -53.2244 H         1 UNK         0.2987 
    113 H113       30.8892  -52.4926  -54.7338 H         1 UNK         0.0785 
    114 H114       30.9183  -52.3552  -57.1941 H         1 UNK         0.0798 
    115 H115       32.5470  -52.6580  -56.6212 H         1 UNK         0.0798 
    116 H116       32.0855  -51.0417  -57.1534 H         1 UNK         0.0798 
    117 H117       32.7799  -51.9062  -53.7158 H         1 UNK         0.3079 
    118 H118       34.3332  -50.6894  -52.7703 H         1 UNK         0.0794 
    119 H119       35.6710  -51.2033  -54.8348 H         1 UNK         0.0786 
    120 H120       36.5763  -50.1593  -53.7488 H         1 UNK         0.0786 
    121 H121       35.8097  -49.4842  -55.1855 H         1 UNK         0.0786 
    122 H122       34.0106  -47.8877  -53.5522 H         1 UNK         0.3032 
    123 H123       33.7940  -46.8827  -50.7467 H         1 UNK         0.1094 
    124 H124       35.6549  -45.4421  -49.8792 H         1 UNK         0.0794 
    125 H125       35.8013  -47.1143  -49.3690 H         1 UNK         0.0794 
    126 H126       36.8267  -46.5053  -50.6578 H         1 UNK         0.0794 
    127 H127       33.7368  -45.3631  -52.3526 H         1 UNK         0.3016 
@<TRIPOS>BOND
     1    1    2 1    
     2    1   67 1    
     3    1   68 1    
     4    1   69 1    
     5    2    3 2    
     6    2    4 am   BACKBONE|DICT|INTERRES
     7    4    5 1    
     8    4   70 1    
     9    5    6 1    
    10    5   65 1    
    11    5   71 1    
    12    6    7 1    
    13    6   72 1    
    14    6   73 1    
    15    7    8 1    
    16    8    9 1    
    17    8   74 1    
    18    8   75 1    
    19    9   10 ar   
    20    9   14 ar   
    21   10   11 ar   
    22   10   76 1    
    23   11   12 ar   
    24   11   48 1    
    25   12   13 ar   
    26   12   77 1    
    27   13   14 ar   
    28   13   15 1    
    29   14   78 1    
    30   15   16 1    
    31   15   79 1    
    32   15   80 1    
    33   16   17 1    
    34   17   18 1    
    35   17   81 1    
    36   17   82 1    
    37   18   19 1    
    38   18   22 1    
    39   18   83 1    
    40   19   20 am   BACKBONE|DICT|INTERRES
    41   19   21 2    
    42   20   84 1    
    43   20   85 1    
    44   22   23 am   BACKBONE|DICT|INTERRES
    45   22   86 1    
    46   23   24 2    
    47   23   25 1    
    48   25   26 1    
    49   25   27 1    
    50   25   87 1    
    51   26   88 1    
    52   26   89 1    
    53   26   90 1    
    54   27   28 am   BACKBONE|DICT|INTERRES
    55   27   91 1    
    56   28   29 2    
    57   28   30 1    
    58   30   31 1    
    59   30   32 1    
    60   30   92 1    
    61   31   93 1    
    62   31   94 1    
    63   31   95 1    
    64   32   33 am   BACKBONE|DICT|INTERRES
    65   32   96 1    
    66   33   34 2    
    67   33   35 1    
    68   35   36 1    
    69   35   37 1    
    70   35   97 1    
    71   36   98 1    
    72   36   99 1    
    73   36  100 1    
    74   37   38 am   BACKBONE|DICT|INTERRES
    75   37  101 1    
    76   38   39 2    
    77   38   40 1    
    78   40   41 1    
    79   40   42 1    
    80   40  102 1    
    81   41  103 1    
    82   41  104 1    
    83   41  105 1    
    84   42   43 am   BACKBONE|DICT|INTERRES
    85   42  106 1    
    86   43   44 2    
    87   43   45 1    
    88   45   46 1    
    89   45   49 1    
    90   45  107 1    
    91   46   47 1    
    92   46  108 1    
    93   46  109 1    
    94   47   48 1    
    95   48  110 1    
    96   48  111 1    
    97   49   50 am   BACKBONE|DICT|INTERRES
    98   49  112 1    
    99   50   51 2    
   100   50   52 1    
   101   52   53 1    
   102   52   54 1    
   103   52  113 1    
   104   53  114 1    
   105   53  115 1    
   106   53  116 1    
   107   54   55 am   BACKBONE|DICT|INTERRES
   108   54  117 1    
   109   55   56 2    
   110   55   57 1    
   111   57   58 1    
   112   57   59 1    
   113   57  118 1    
   114   58  119 1    
   115   58  120 1    
   116   58  121 1    
   117   59   60 am   BACKBONE|DICT|INTERRES
   118   59  122 1    
   119   60   61 2    
   120   60   62 1    
   121   62   63 1    
   122   62   64 1    
   123   62  123 1    
   124   63  124 1    
   125   63  125 1    
   126   63  126 1    
   127   64   65 am   BACKBONE|DICT|INTERRES
   128   64  127 1    
   129   65   66 2    
@<TRIPOS>SUBSTRUCTURE
     1 UNK         1 GROUP             0       ****    0 ROOT    
