@<TRIPOS>MOLECULE
3R134
127   129    1
SMALL
USER_CHARGES


@<TRIPOS>ATOM
      1 CA         36.8831  -47.3576  -57.8830 C.3       0 UNK        -0.1968 
      2 C          35.4936  -47.3957  -57.2652 C.2       0 UNK         0.4852 
      3 O          34.9810  -48.4790  -56.9832 O.2       0 UNK        -0.5359 
      4 N          34.8876  -46.2214  -57.0372 N.am      1 UNK        -0.4300 
      5 CA         33.5457  -46.0422  -56.4619 C.3       1 UNK         0.0863 
      6 C6         33.1129  -44.5534  -56.4665 C.3       11 UNK        -0.0953 
      7 S7         34.2423  -43.4696  -55.5209 S.3       11 UNK        -0.2369 
      8 C8         33.1891  -42.0183  -55.1967 C.3       11 UNK         0.0226 
      9 C9         31.9790  -42.2858  -54.3023 C.ar      11 UNK        -0.0699 
     10 C10        32.0471  -43.1419  -53.1949 C.ar      11 UNK        -0.0804 
     11 C11        30.9295  -43.3336  -52.3745 C.ar      11 UNK        -0.0871 
     12 C12        29.7481  -42.6399  -52.6474 C.ar      11 UNK        -0.1008 
     13 C13        29.6605  -41.7947  -53.7569 C.ar      11 UNK        -0.0735 
     14 C14        30.7789  -41.6235  -54.5767 C.ar      11 UNK        -0.0945 
     15 C15        28.3638  -41.0631  -54.0859 C.3       11 UNK         0.0169 
     16 S16        26.8810  -42.1299  -54.0795 S.3       11 UNK        -0.2669 
     17 C17        27.3987  -43.6107  -55.0174 C.3       11 UNK        -0.0850 
     18 CA         26.9500  -43.6085  -56.5036 C.3       10 UNK         0.0855 
     19 C          28.0476  -43.0294  -57.4496 C.2       10 UNK         0.5543 
     20 N          28.6142  -43.7984  -58.3734 N.am      10 UNK        -0.7343 
     21 O          28.3801  -41.8514  -57.3604 O.2       10 UNK        -0.5027 
     22 N          26.4545  -44.9366  -56.8921 N.am      10 UNK        -0.4495 
     23 C          25.6644  -45.1751  -57.9458 C.2       10 UNK         0.4903 
     24 O          25.1845  -44.2887  -58.6548 O.2       10 UNK        -0.4860 
     25 CA         25.3684  -46.6542  -58.2575 C.3       9 UNK         0.0227 
     26 CB         24.8604  -46.8714  -59.6985 C.3       9 UNK        -0.1964 
     27 N          26.4968  -47.5487  -57.9718 N.am      9 UNK        -0.4231 
     28 C          27.7347  -47.5093  -58.4933 C.2       9 UNK         0.5014 
     29 O          28.1142  -46.6358  -59.2749 O.2       9 UNK        -0.5270 
     30 CA         28.7358  -48.6060  -58.0663 C.3       8 UNK         0.0284 
     31 CB         29.9787  -47.9830  -57.4061 C.3       8 UNK        -0.1977 
     32 N          28.1665  -49.6069  -57.1596 N.am      8 UNK        -0.4342 
     33 C          27.2799  -50.5534  -57.4980 C.2       8 UNK         0.5039 
     34 O          26.9165  -50.7735  -58.6534 O.2       8 UNK        -0.5547 
     35 CA         26.6392  -51.3352  -56.3399 C.3       7 UNK         0.0281 
     36 CB         27.4744  -52.5772  -55.9928 C.3       7 UNK        -0.1963 
     37 N          26.4651  -50.4957  -55.1480 N.am      7 UNK        -0.4444 
     38 C          25.5384  -49.5329  -55.0314 C.2       7 UNK         0.5104 
     39 O          24.7082  -49.2794  -55.9037 O.2       7 UNK        -0.5100 
     40 CA         25.5594  -48.6847  -53.7469 C.3       6 UNK         0.0396 
     41 CB         24.7940  -49.3945  -52.6194 C.3       6 UNK        -0.1801 
     42 N          26.9140  -48.3614  -53.2923 N.am      6 UNK        -0.4747 
     43 C          27.7572  -47.5392  -53.9350 C.2       6 UNK         0.5012 
     44 O          27.4628  -46.9296  -54.9645 O.2       6 UNK        -0.5003 
     45 CA         29.1842  -47.4142  -53.3584 C.3       5 UNK         0.0782 
     46 C46        29.2700  -46.2551  -52.3318 C.3       11 UNK        -0.0868 
     47 S47        30.9669  -46.0301  -51.6877 S.3       11 UNK        -0.2515 
     48 C48        30.9960  -44.2797  -51.1843 C.3       11 UNK         0.0199 
     49 N          29.7161  -48.6723  -52.8106 N.am      5 UNK        -0.4607 
     50 C          29.7979  -49.8453  -53.4514 C.2       4 UNK         0.5031 
     51 O          29.3327  -50.0464  -54.5732 O.2       4 UNK        -0.5119 
     52 CA         30.5162  -50.9751  -52.6959 C.3       4 UNK         0.0263 
     53 CB         29.8959  -52.3624  -52.9632 C.3       4 UNK        -0.1967 
     54 N          31.9564  -50.9588  -52.9705 N.am      4 UNK        -0.4237 
     55 C          32.5923  -51.1857  -54.1305 C.2       3 UNK         0.4908 
     56 O          32.0454  -51.5492  -55.1726 O.2       3 UNK        -0.5102 
     57 CA         34.1145  -50.9422  -54.1096 C.3       3 UNK         0.0241 
     58 CB         34.8240  -51.5012  -55.3570 C.3       3 UNK        -0.1971 
     59 N          34.4119  -49.5131  -53.9893 N.am      3 UNK        -0.4139 
     60 C          34.2956  -48.7987  -52.8594 C.2       2 UNK         0.5016 
     61 O          33.9971  -49.3006  -51.7736 O.2       2 UNK        -0.5319 
     62 CA         34.5344  -47.2791  -52.9329 C.3       2 UNK         0.0286 
     63 CB         35.8898  -46.9148  -52.3065 C.3       2 UNK        -0.1963 
     64 N          34.4713  -46.7180  -54.2838 N.am      2 UNK        -0.4790 
     65 C          33.3781  -46.6697  -55.0606 C.2       1 UNK         0.5024 
     66 O          32.2826  -47.1150  -54.7279 O.2       1 UNK        -0.4888 
     67 H67        37.6019  -47.8358  -57.2183 H         1 UNK         0.0892 
     68 H68        36.8856  -47.8950  -58.8309 H         1 UNK         0.0892 
     69 H69        37.2194  -46.3380  -58.0701 H         1 UNK         0.0892 
     70 H70        35.3682  -45.3642  -57.2723 H         1 UNK         0.3107 
     71 H71        32.8585  -46.5823  -57.1166 H         1 UNK         0.0773 
     72 H72        33.0693  -44.1843  -57.4923 H         1 UNK         0.0680 
     73 H73        32.0982  -44.4555  -56.0752 H         1 UNK         0.0680 
     74 H74        32.8712  -41.6112  -56.1579 H         1 UNK         0.0650 
     75 H75        33.8003  -41.2491  -54.7235 H         1 UNK         0.0650 
     76 H76        32.9665  -43.6649  -52.9706 H         1 UNK         0.1397 
     77 H77        28.8843  -42.7751  -52.0107 H         1 UNK         0.1363 
     78 H78        30.7152  -40.9642  -55.4320 H         1 UNK         0.1355 
     79 H79        28.2200  -40.2642  -53.3576 H         1 UNK         0.0707 
     80 H80        28.4323  -40.5752  -55.0587 H         1 UNK         0.0707 
     81 H81        26.9253  -44.4377  -54.4877 H         1 UNK         0.1034 
     82 H82        28.4678  -43.8050  -54.9243 H         1 UNK         0.1034 
     83 H83        26.0979  -42.9320  -56.5943 H         1 UNK         0.0482 
     84 H84        28.3278  -44.7615  -58.5088 H         1 UNK         0.3460 
     85 H85        29.3115  -43.3974  -58.9791 H         1 UNK         0.3460 
     86 H86        26.8096  -45.7228  -56.3546 H         1 UNK         0.2989 
     87 H87        24.5689  -46.9510  -57.5775 H         1 UNK         0.0559 
     88 H88        25.5920  -46.5440  -60.4379 H         1 UNK         0.0848 
     89 H89        23.9416  -46.3124  -59.8798 H         1 UNK         0.0848 
     90 H90        24.6404  -47.9223  -59.8868 H         1 UNK         0.0848 
     91 H91        26.2976  -48.2842  -57.3067 H         1 UNK         0.3144 
     92 H92        29.0555  -49.1201  -58.9749 H         1 UNK         0.0727 
     93 H93        30.6866  -48.7460  -57.0798 H         1 UNK         0.0790 
     94 H94        29.7132  -47.3811  -56.5379 H         1 UNK         0.0790 
     95 H95        30.5047  -47.3292  -58.1028 H         1 UNK         0.0790 
     96 H96        28.4739  -49.5729  -56.1891 H         1 UNK         0.3215 
     97 H97        25.6526  -51.6710  -56.6673 H         1 UNK         0.0863 
     98 H98        28.5025  -52.3149  -55.7446 H         1 UNK         0.0808 
     99 H99        27.5140  -53.2639  -56.8393 H         1 UNK         0.0808 
    100 H100       27.0503  -53.1238  -55.1504 H         1 UNK         0.0808 
    101 H101       27.1746  -50.5753  -54.4318 H         1 UNK         0.3118 
    102 H102       25.0459  -47.7453  -53.9634 H         1 UNK         0.0546 
    103 H103       24.7265  -48.7679  -51.7299 H         1 UNK         0.0828 
    104 H104       25.2686  -50.3341  -52.3340 H         1 UNK         0.0828 
    105 H105       23.7734  -49.6261  -52.9276 H         1 UNK         0.0828 
    106 H106       27.2421  -48.8238  -52.4564 H         1 UNK         0.3005 
    107 H107       29.8222  -47.1526  -54.2024 H         1 UNK         0.1257 
    108 H108       28.6031  -46.4336  -51.4863 H         1 UNK         0.0775 
    109 H109       28.9394  -45.3245  -52.7944 H         1 UNK         0.0775 
    110 H110       30.1764  -44.0923  -50.4887 H         1 UNK         0.0840 
    111 H111       31.9149  -44.0905  -50.6276 H         1 UNK         0.0840 
    112 H112       30.1489  -48.5870  -51.9023 H         1 UNK         0.2987 
    113 H113       30.4047  -50.7783  -51.6284 H         1 UNK         0.0785 
    114 H114       30.3584  -53.1266  -52.3388 H         1 UNK         0.0798 
    115 H115       28.8286  -52.3618  -52.7391 H         1 UNK         0.0798 
    116 H116       30.0076  -52.6726  -54.0013 H         1 UNK         0.0798 
    117 H117       32.5347  -50.5853  -52.2226 H         1 UNK         0.3079 
    118 H118       34.5219  -51.4619  -53.2395 H         1 UNK         0.0794 
    119 H119       34.6551  -52.5745  -55.4527 H         1 UNK         0.0786 
    120 H120       35.9016  -51.3452  -55.3048 H         1 UNK         0.0786 
    121 H121       34.4626  -51.0319  -56.2728 H         1 UNK         0.0786 
    122 H122       34.6143  -49.0227  -54.8535 H         1 UNK         0.3032 
    123 H123       33.7468  -46.8073  -52.3427 H         1 UNK         0.1094 
    124 H124       36.7217  -47.3430  -52.8669 H         1 UNK         0.0794 
    125 H125       36.0306  -45.8345  -52.2651 H         1 UNK         0.0794 
    126 H126       35.9599  -47.2871  -51.2833 H         1 UNK         0.0794 
    127 H127       35.3240  -46.3218  -54.6518 H         1 UNK         0.3016 
@<TRIPOS>BOND
     1    1    2 1    
     2    1   67 1    
     3    1   68 1    
     4    1   69 1    
     5    2    3 2    
     6    2    4 am   BACKBONE|DICT|INTERRES
     7    4    5 1    
     8    4   70 1    
     9    5    6 1    
    10    5   65 1    
    11    5   71 1    
    12    6    7 1    
    13    6   72 1    
    14    6   73 1    
    15    7    8 1    
    16    8    9 1    
    17    8   74 1    
    18    8   75 1    
    19    9   10 ar   
    20    9   14 ar   
    21   10   11 ar   
    22   10   76 1    
    23   11   12 ar   
    24   11   48 1    
    25   12   13 ar   
    26   12   77 1    
    27   13   14 ar   
    28   13   15 1    
    29   14   78 1    
    30   15   16 1    
    31   15   79 1    
    32   15   80 1    
    33   16   17 1    
    34   17   18 1    
    35   17   81 1    
    36   17   82 1    
    37   18   19 1    
    38   18   22 1    
    39   18   83 1    
    40   19   20 am   BACKBONE|DICT|INTERRES
    41   19   21 2    
    42   20   84 1    
    43   20   85 1    
    44   22   23 am   BACKBONE|DICT|INTERRES
    45   22   86 1    
    46   23   24 2    
    47   23   25 1    
    48   25   26 1    
    49   25   27 1    
    50   25   87 1    
    51   26   88 1    
    52   26   89 1    
    53   26   90 1    
    54   27   28 am   BACKBONE|DICT|INTERRES
    55   27   91 1    
    56   28   29 2    
    57   28   30 1    
    58   30   31 1    
    59   30   32 1    
    60   30   92 1    
    61   31   93 1    
    62   31   94 1    
    63   31   95 1    
    64   32   33 am   BACKBONE|DICT|INTERRES
    65   32   96 1    
    66   33   34 2    
    67   33   35 1    
    68   35   36 1    
    69   35   37 1    
    70   35   97 1    
    71   36   98 1    
    72   36   99 1    
    73   36  100 1    
    74   37   38 am   BACKBONE|DICT|INTERRES
    75   37  101 1    
    76   38   39 2    
    77   38   40 1    
    78   40   41 1    
    79   40   42 1    
    80   40  102 1    
    81   41  103 1    
    82   41  104 1    
    83   41  105 1    
    84   42   43 am   BACKBONE|DICT|INTERRES
    85   42  106 1    
    86   43   44 2    
    87   43   45 1    
    88   45   46 1    
    89   45   49 1    
    90   45  107 1    
    91   46   47 1    
    92   46  108 1    
    93   46  109 1    
    94   47   48 1    
    95   48  110 1    
    96   48  111 1    
    97   49   50 am   BACKBONE|DICT|INTERRES
    98   49  112 1    
    99   50   51 2    
   100   50   52 1    
   101   52   53 1    
   102   52   54 1    
   103   52  113 1    
   104   53  114 1    
   105   53  115 1    
   106   53  116 1    
   107   54   55 am   BACKBONE|DICT|INTERRES
   108   54  117 1    
   109   55   56 2    
   110   55   57 1    
   111   57   58 1    
   112   57   59 1    
   113   57  118 1    
   114   58  119 1    
   115   58  120 1    
   116   58  121 1    
   117   59   60 am   BACKBONE|DICT|INTERRES
   118   59  122 1    
   119   60   61 2    
   120   60   62 1    
   121   62   63 1    
   122   62   64 1    
   123   62  123 1    
   124   63  124 1    
   125   63  125 1    
   126   63  126 1    
   127   64   65 am   BACKBONE|DICT|INTERRES
   128   64  127 1    
   129   65   66 2    
@<TRIPOS>SUBSTRUCTURE
     1 UNK         1 GROUP             0       ****    0 ROOT    
