@<TRIPOS>MOLECULE
3R134
127   129    1
SMALL
USER_CHARGES


@<TRIPOS>ATOM
      1 CA         31.8901  -49.4758  -57.2545 C.3       0 UNK        -0.1968 
      2 C          32.8888  -48.4072  -56.8327 C.2       0 UNK         0.4852 
      3 O          33.9654  -48.3068  -57.4240 O.2       0 UNK        -0.5359 
      4 N          32.5367  -47.6195  -55.8082 N.am      1 UNK        -0.4300 
      5 CA         33.2788  -46.4955  -55.2158 C.3       1 UNK         0.0863 
      6 C6         33.6303  -45.3457  -56.1979 C.3       11 UNK        -0.0953 
      7 S7         32.1774  -44.5877  -56.9966 S.3       11 UNK        -0.2369 
      8 C8         31.9849  -43.0424  -56.0495 C.3       11 UNK         0.0226 
      9 C9         31.0533  -43.2230  -54.8600 C.ar      11 UNK        -0.0699 
     10 C10        31.5343  -43.7151  -53.6432 C.ar      11 UNK        -0.0804 
     11 C11        30.6699  -43.8949  -52.5593 C.ar      11 UNK        -0.0871 
     12 C12        29.3204  -43.5511  -52.6935 C.ar      11 UNK        -0.1008 
     13 C13        28.8268  -43.0394  -53.8982 C.ar      11 UNK        -0.0735 
     14 C14        29.7035  -42.8790  -54.9764 C.ar      11 UNK        -0.0945 
     15 C15        27.3605  -42.6235  -53.9983 C.3       11 UNK         0.0169 
     16 S16        26.4996  -43.3061  -55.4548 S.3       11 UNK        -0.2669 
     17 C17        26.5058  -41.8663  -56.5781 C.3       11 UNK        -0.0850 
     18 CA         25.9611  -42.1906  -57.9940 C.3       10 UNK         0.0855 
     19 C          25.8819  -40.8928  -58.8523 C.2       10 UNK         0.5543 
     20 N          26.6632  -40.7475  -59.9157 N.am      10 UNK        -0.7343 
     21 O          25.0942  -40.0019  -58.5439 O.2       10 UNK        -0.5027 
     22 N          26.6838  -43.3129  -58.6200 N.am      10 UNK        -0.4495 
     23 C          26.2558  -43.9977  -59.6894 C.2       10 UNK         0.4903 
     24 O          25.2026  -43.7594  -60.2813 O.2       10 UNK        -0.4860 
     25 CA         27.1513  -45.1434  -60.1955 C.3       9 UNK         0.0227 
     26 CB         28.0867  -44.6382  -61.3062 C.3       9 UNK        -0.1964 
     27 N          27.9485  -45.7918  -59.1487 N.am      9 UNK        -0.4231 
     28 C          27.4438  -46.5371  -58.1558 C.2       9 UNK         0.5014 
     29 O          26.2370  -46.7300  -57.9845 O.2       9 UNK        -0.5270 
     30 CA         28.4722  -47.1500  -57.1881 C.3       8 UNK         0.0284 
     31 CB         28.9366  -46.1039  -56.1650 C.3       8 UNK        -0.1977 
     32 N          27.9318  -48.3120  -56.4793 N.am      8 UNK        -0.4342 
     33 C          27.6981  -49.5042  -57.0485 C.2       8 UNK         0.5039 
     34 O          28.0046  -49.7650  -58.2138 O.2       8 UNK        -0.5547 
     35 CA         27.0211  -50.5953  -56.1956 C.3       7 UNK         0.0281 
     36 CB         27.7764  -51.9331  -56.3051 C.3       7 UNK        -0.1963 
     37 N          26.9403  -50.2202  -54.7826 N.am      7 UNK        -0.4444 
     38 C          25.8229  -49.8737  -54.1275 C.2       7 UNK         0.5104 
     39 O          24.7060  -49.8557  -54.6451 O.2       7 UNK        -0.5100 
     40 CA         25.9602  -49.4784  -52.6405 C.3       6 UNK         0.0396 
     41 CB         25.5089  -50.6376  -51.7376 C.3       6 UNK        -0.1801 
     42 N          27.3159  -49.0735  -52.2538 N.am      6 UNK        -0.4747 
     43 C          27.9486  -47.9830  -52.7124 C.2       6 UNK         0.5012 
     44 O          27.4045  -47.1464  -53.4300 O.2       6 UNK        -0.5003 
     45 CA         29.4537  -47.8372  -52.3885 C.3       5 UNK         0.0782 
     46 C46        29.6818  -46.8223  -51.2448 C.3       11 UNK        -0.0868 
     47 S47        31.4089  -46.2346  -51.2244 S.3       11 UNK        -0.2515 
     48 C48        31.2032  -44.4222  -51.2326 C.3       11 UNK         0.0199 
     49 N          30.1174  -49.1251  -52.1179 N.am      5 UNK        -0.4607 
     50 C          30.1869  -50.1445  -52.9840 C.2       4 UNK         0.5031 
     51 O          29.7445  -50.0803  -54.1312 O.2       4 UNK        -0.5119 
     52 CA         30.8157  -51.4503  -52.4616 C.3       4 UNK         0.0263 
     53 CB         30.4580  -52.6661  -53.3444 C.3       4 UNK        -0.1967 
     54 N          32.2690  -51.3450  -52.2835 N.am      4 UNK        -0.4237 
     55 C          33.1687  -51.0402  -53.2280 C.2       3 UNK         0.4908 
     56 O          32.8926  -50.8118  -54.4088 O.2       3 UNK        -0.5102 
     57 CA         34.6354  -50.9896  -52.7890 C.3       3 UNK         0.0241 
     58 CB         35.3005  -52.3741  -52.8803 C.3       3 UNK        -0.1971 
     59 N          35.2892  -50.0554  -53.6903 N.am      3 UNK        -0.4139 
     60 C          36.3698  -49.3122  -53.4460 C.2       2 UNK         0.5016 
     61 O          37.0870  -49.4324  -52.4521 O.2       2 UNK        -0.5319 
     62 CA         36.6666  -48.2154  -54.4835 C.3       2 UNK         0.0286 
     63 CB         37.5847  -48.7502  -55.5939 C.3       2 UNK        -0.1963 
     64 N          35.4421  -47.6694  -55.0845 N.am      2 UNK        -0.4790 
     65 C          34.5330  -46.9307  -54.4327 C.2       1 UNK         0.5024 
     66 O          34.6579  -46.5841  -53.2582 O.2       1 UNK        -0.4888 
     67 H67        32.3636  -50.4570  -57.2379 H         1 UNK         0.0892 
     68 H68        31.0265  -49.5127  -56.5897 H         1 UNK         0.0892 
     69 H69        31.5333  -49.2827  -58.2656 H         1 UNK         0.0892 
     70 H70        31.6585  -47.8197  -55.3528 H         1 UNK         0.3107 
     71 H71        32.5938  -46.0928  -54.4707 H         1 UNK         0.0773 
     72 H72        34.1951  -44.5664  -55.6836 H         1 UNK         0.0680 
     73 H73        34.2898  -45.7050  -56.9892 H         1 UNK         0.0680 
     74 H74        31.5836  -42.2808  -56.7198 H         1 UNK         0.0650 
     75 H75        32.9536  -42.6644  -55.7209 H         1 UNK         0.0650 
     76 H76        32.5818  -43.9619  -53.5387 H         1 UNK         0.1397 
     77 H77        28.6533  -43.6674  -51.8504 H         1 UNK         0.1363 
     78 H78        29.3398  -42.4880  -55.9140 H         1 UNK         0.1355 
     79 H79        26.8161  -42.9554  -53.1130 H         1 UNK         0.0707 
     80 H80        27.2975  -41.5346  -53.9992 H         1 UNK         0.0707 
     81 H81        25.8990  -41.0865  -56.1130 H         1 UNK         0.1034 
     82 H82        27.5141  -41.4575  -56.6470 H         1 UNK         0.1034 
     83 H83        24.9280  -42.5214  -57.8696 H         1 UNK         0.0482 
     84 H84        27.3086  -41.4747  -60.1771 H         1 UNK         0.3460 
     85 H85        26.6006  -39.9044  -60.4644 H         1 UNK         0.3460 
     86 H86        27.5489  -43.5877  -58.1811 H         1 UNK         0.2989 
     87 H87        26.4943  -45.9016  -60.6272 H         1 UNK         0.0559 
     88 H88        27.5191  -44.1686  -62.1111 H         1 UNK         0.0848 
     89 H89        28.6546  -45.4559  -61.7505 H         1 UNK         0.0848 
     90 H90        28.7968  -43.8984  -60.9345 H         1 UNK         0.0848 
     91 H91        28.9509  -45.6816  -59.2101 H         1 UNK         0.3144 
     92 H92        29.3389  -47.4752  -57.7677 H         1 UNK         0.0727 
     93 H93        28.1195  -45.7784  -55.5221 H         1 UNK         0.0790 
     94 H94        29.3215  -45.2138  -56.6613 H         1 UNK         0.0790 
     95 H95        29.7333  -46.4861  -55.5291 H         1 UNK         0.0790 
     96 H96        27.5998  -48.1517  -55.5376 H         1 UNK         0.3215 
     97 H97        26.0195  -50.7383  -56.6062 H         1 UNK         0.0863 
     98 H98        27.3072  -52.7057  -55.6960 H         1 UNK         0.0808 
     99 H99        28.8145  -51.8366  -55.9848 H         1 UNK         0.0808 
    100 H100       27.7863  -52.2955  -57.3337 H         1 UNK         0.0808 
    101 H101       27.8352  -50.1772  -54.3017 H         1 UNK         0.3118 
    102 H102       25.2945  -48.6305  -52.4660 H         1 UNK         0.0546 
    103 H103       26.1460  -51.5148  -51.8568 H         1 UNK         0.0828 
    104 H104       24.4886  -50.9425  -51.9749 H         1 UNK         0.0828 
    105 H105       25.5215  -50.3514  -50.6858 H         1 UNK         0.0828 
    106 H106       27.8291  -49.7099  -51.6612 H         1 UNK         0.3005 
    107 H107       29.9049  -47.4288  -53.2951 H         1 UNK         0.1257 
    108 H108       29.4464  -47.2674  -50.2765 H         1 UNK         0.0775 
    109 H109       29.0157  -45.9651  -51.3457 H         1 UNK         0.0775 
    110 H110       30.5502  -44.1284  -50.4092 H         1 UNK         0.0840 
    111 H111       32.1705  -43.9620  -51.0256 H         1 UNK         0.0840 
    112 H112       30.5272  -49.2299  -51.2008 H         1 UNK         0.2987 
    113 H113       30.3908  -51.6325  -51.4732 H         1 UNK         0.0785 
    114 H114       29.3767  -52.7862  -53.4222 H         1 UNK         0.0798 
    115 H115       30.8580  -53.5902  -52.9274 H         1 UNK         0.0798 
    116 H116       30.8442  -52.5630  -54.3591 H         1 UNK         0.0798 
    117 H117       32.6044  -51.5065  -51.3435 H         1 UNK         0.3079 
    118 H118       34.6941  -50.6090  -51.7670 H         1 UNK         0.0794 
    119 H119       36.3508  -52.3294  -52.5917 H         1 UNK         0.0786 
    120 H120       35.2486  -52.7787  -53.8920 H         1 UNK         0.0786 
    121 H121       34.8116  -53.0879  -52.2162 H         1 UNK         0.0786 
    122 H122       34.7453  -49.8645  -54.5240 H         1 UNK         0.3032 
    123 H123       37.1843  -47.4047  -53.9656 H         1 UNK         0.1094 
    124 H124       37.1083  -49.5503  -56.1621 H         1 UNK         0.0794 
    125 H125       37.8615  -47.9611  -56.2933 H         1 UNK         0.0794 
    126 H126       38.5093  -49.1513  -55.1762 H         1 UNK         0.0794 
    127 H127       35.2279  -47.9250  -56.0465 H         1 UNK         0.3016 
@<TRIPOS>BOND
     1    1    2 1    
     2    1   67 1    
     3    1   68 1    
     4    1   69 1    
     5    2    3 2    
     6    2    4 am   BACKBONE|DICT|INTERRES
     7    4    5 1    
     8    4   70 1    
     9    5    6 1    
    10    5   65 1    
    11    5   71 1    
    12    6    7 1    
    13    6   72 1    
    14    6   73 1    
    15    7    8 1    
    16    8    9 1    
    17    8   74 1    
    18    8   75 1    
    19    9   10 ar   
    20    9   14 ar   
    21   10   11 ar   
    22   10   76 1    
    23   11   12 ar   
    24   11   48 1    
    25   12   13 ar   
    26   12   77 1    
    27   13   14 ar   
    28   13   15 1    
    29   14   78 1    
    30   15   16 1    
    31   15   79 1    
    32   15   80 1    
    33   16   17 1    
    34   17   18 1    
    35   17   81 1    
    36   17   82 1    
    37   18   19 1    
    38   18   22 1    
    39   18   83 1    
    40   19   20 am   BACKBONE|DICT|INTERRES
    41   19   21 2    
    42   20   84 1    
    43   20   85 1    
    44   22   23 am   BACKBONE|DICT|INTERRES
    45   22   86 1    
    46   23   24 2    
    47   23   25 1    
    48   25   26 1    
    49   25   27 1    
    50   25   87 1    
    51   26   88 1    
    52   26   89 1    
    53   26   90 1    
    54   27   28 am   BACKBONE|DICT|INTERRES
    55   27   91 1    
    56   28   29 2    
    57   28   30 1    
    58   30   31 1    
    59   30   32 1    
    60   30   92 1    
    61   31   93 1    
    62   31   94 1    
    63   31   95 1    
    64   32   33 am   BACKBONE|DICT|INTERRES
    65   32   96 1    
    66   33   34 2    
    67   33   35 1    
    68   35   36 1    
    69   35   37 1    
    70   35   97 1    
    71   36   98 1    
    72   36   99 1    
    73   36  100 1    
    74   37   38 am   BACKBONE|DICT|INTERRES
    75   37  101 1    
    76   38   39 2    
    77   38   40 1    
    78   40   41 1    
    79   40   42 1    
    80   40  102 1    
    81   41  103 1    
    82   41  104 1    
    83   41  105 1    
    84   42   43 am   BACKBONE|DICT|INTERRES
    85   42  106 1    
    86   43   44 2    
    87   43   45 1    
    88   45   46 1    
    89   45   49 1    
    90   45  107 1    
    91   46   47 1    
    92   46  108 1    
    93   46  109 1    
    94   47   48 1    
    95   48  110 1    
    96   48  111 1    
    97   49   50 am   BACKBONE|DICT|INTERRES
    98   49  112 1    
    99   50   51 2    
   100   50   52 1    
   101   52   53 1    
   102   52   54 1    
   103   52  113 1    
   104   53  114 1    
   105   53  115 1    
   106   53  116 1    
   107   54   55 am   BACKBONE|DICT|INTERRES
   108   54  117 1    
   109   55   56 2    
   110   55   57 1    
   111   57   58 1    
   112   57   59 1    
   113   57  118 1    
   114   58  119 1    
   115   58  120 1    
   116   58  121 1    
   117   59   60 am   BACKBONE|DICT|INTERRES
   118   59  122 1    
   119   60   61 2    
   120   60   62 1    
   121   62   63 1    
   122   62   64 1    
   123   62  123 1    
   124   63  124 1    
   125   63  125 1    
   126   63  126 1    
   127   64   65 am   BACKBONE|DICT|INTERRES
   128   64  127 1    
   129   65   66 2    
@<TRIPOS>SUBSTRUCTURE
     1 UNK         1 GROUP             0       ****    0 ROOT    
