@<TRIPOS>MOLECULE
3R134
127   129    1
SMALL
USER_CHARGES


@<TRIPOS>ATOM
      1 CA         36.1659  -45.0408  -51.5860 C.3       0 UNK        -0.1968 
      2 C          34.8526  -45.1552  -52.3453 C.2       0 UNK         0.4852 
      3 O          34.5578  -46.2156  -52.8973 O.2       0 UNK        -0.5359 
      4 N          34.0596  -44.0760  -52.3688 N.am      1 UNK        -0.4300 
      5 CA         32.7623  -43.9636  -53.0496 C.3       1 UNK         0.0863 
      6 C6         32.4125  -42.4804  -53.3472 C.3       11 UNK        -0.0953 
      7 S7         33.6686  -41.6825  -54.4100 S.3       11 UNK        -0.2369 
      8 C8         32.7632  -41.3823  -55.9635 C.3       11 UNK         0.0226 
      9 C9         32.1763  -42.6572  -56.5525 C.ar      11 UNK        -0.0699 
     10 C10        33.0114  -43.6524  -57.0668 C.ar      11 UNK        -0.0804 
     11 C11        32.4696  -44.8356  -57.5768 C.ar      11 UNK        -0.0871 
     12 C12        31.0833  -45.0178  -57.5733 C.ar      11 UNK        -0.1008 
     13 C13        30.2348  -44.0279  -57.0699 C.ar      11 UNK        -0.0735 
     14 C14        30.7917  -42.8415  -56.5770 C.ar      11 UNK        -0.0945 
     15 C15        28.7260  -44.2689  -57.0781 C.3       11 UNK         0.0169 
     16 S16        27.8119  -43.4512  -55.7232 S.3       11 UNK        -0.2669 
     17 C17        28.6026  -44.1700  -54.2381 C.3       11 UNK        -0.0850 
     18 CA         27.7194  -45.1878  -53.4737 C.3       10 UNK         0.0855 
     19 C          26.5575  -44.4987  -52.7036 C.2       10 UNK         0.5543 
     20 N          26.8654  -43.8577  -51.5837 N.am      10 UNK        -0.7343 
     21 O          25.3997  -44.5091  -53.1169 O.2       10 UNK        -0.5027 
     22 N          27.3090  -46.2823  -54.3590 N.am      10 UNK        -0.4495 
     23 C          26.7083  -47.4176  -53.9899 C.2       10 UNK         0.4903 
     24 O          26.4373  -47.7071  -52.8237 O.2       10 UNK        -0.4860 
     25 CA         26.4189  -48.4192  -55.1238 C.3       9 UNK         0.0227 
     26 CB         25.3651  -49.4835  -54.7508 C.3       9 UNK        -0.1964 
     27 N          26.1196  -47.7654  -56.4045 N.am      9 UNK        -0.4231 
     28 C          25.0248  -47.0620  -56.7375 C.2       9 UNK         0.5014 
     29 O          24.0647  -46.8950  -55.9850 O.2       9 UNK        -0.5270 
     30 CA         24.9791  -46.4215  -58.1434 C.3       8 UNK         0.0284 
     31 CB         24.8402  -44.8923  -58.0480 C.3       8 UNK        -0.1977 
     32 N          26.1384  -46.7397  -58.9839 N.am      8 UNK        -0.4342 
     33 C          26.3391  -47.9081  -59.6063 C.2       8 UNK         0.5039 
     34 O          25.5275  -48.8347  -59.5980 O.2       8 UNK        -0.5547 
     35 CA         27.6925  -48.1107  -60.3147 C.3       7 UNK         0.0281 
     36 CB         28.5147  -46.8148  -60.5140 C.3       7 UNK        -0.1963 
     37 N          28.4826  -49.1337  -59.6178 N.am      7 UNK        -0.4444 
     38 C          28.8995  -49.0967  -58.3429 C.2       7 UNK         0.5104 
     39 O          28.7248  -48.1283  -57.5980 O.2       7 UNK        -0.5100 
     40 CA         29.5697  -50.3647  -57.7748 C.3       6 UNK         0.0396 
     41 CB         29.9595  -51.4206  -58.8348 C.3       6 UNK        -0.1801 
     42 N          30.7074  -50.0392  -56.9106 N.am      6 UNK        -0.4747 
     43 C          31.8521  -49.4326  -57.2673 C.2       6 UNK         0.5012 
     44 O          32.1246  -49.1287  -58.4289 O.2       6 UNK        -0.5003 
     45 CA         32.8736  -49.1223  -56.1484 C.3       5 UNK         0.0782 
     46 C46        32.9774  -47.5988  -55.8730 C.3       11 UNK        -0.0868 
     47 S47        34.3035  -46.7885  -56.8295 S.3       11 UNK        -0.2515 
     48 C48        33.3813  -45.9169  -58.1361 C.3       11 UNK         0.0199 
     49 N          32.5737  -49.8534  -54.9138 N.am      5 UNK        -0.4607 
     50 C          32.8953  -51.1342  -54.6840 C.2       4 UNK         0.5031 
     51 O          33.5432  -51.8227  -55.4725 O.2       4 UNK        -0.5119 
     52 CA         32.4138  -51.7671  -53.3623 C.3       4 UNK         0.0263 
     53 CB         33.5662  -51.8222  -52.3461 C.3       4 UNK        -0.1967 
     54 N          31.2718  -51.0809  -52.7505 N.am      4 UNK        -0.4237 
     55 C          30.0490  -50.9830  -53.2917 C.2       3 UNK         0.4908 
     56 O          29.7247  -51.5186  -54.3514 O.2       3 UNK        -0.5102 
     57 CA         29.0319  -50.0859  -52.5643 C.3       3 UNK         0.0241 
     58 CB         28.1542  -50.9175  -51.6164 C.3       3 UNK        -0.1971 
     59 N          29.6148  -48.9538  -51.8295 N.am      3 UNK        -0.4139 
     60 C          30.4144  -48.0133  -52.3545 C.2       2 UNK         0.5016 
     61 O          30.7826  -48.0149  -53.5314 O.2       2 UNK        -0.5319 
     62 CA         30.9089  -46.9183  -51.3958 C.3       2 UNK         0.0286 
     63 CB         31.6888  -47.5224  -50.2129 C.3       2 UNK        -0.1963 
     64 N          31.8033  -46.0065  -52.1064 N.am      2 UNK        -0.4790 
     65 C          31.6581  -44.6859  -52.2422 C.2       1 UNK         0.5024 
     66 O          30.7288  -44.0496  -51.7414 O.2       1 UNK        -0.4888 
     67 H67        37.0029  -45.2371  -52.2554 H         1 UNK         0.0892 
     68 H68        36.1963  -45.7716  -50.7783 H         1 UNK         0.0892 
     69 H69        36.3029  -44.0500  -51.1532 H         1 UNK         0.0892 
     70 H70        34.3570  -43.2414  -51.8843 H         1 UNK         0.3107 
     71 H71        32.8335  -44.4808  -54.0100 H         1 UNK         0.0773 
     72 H72        31.4332  -42.4018  -53.8214 H         1 UNK         0.0680 
     73 H73        32.3425  -41.9093  -52.4197 H         1 UNK         0.0680 
     74 H74        31.9823  -40.6430  -55.7783 H         1 UNK         0.0650 
     75 H75        33.4444  -40.9331  -56.6873 H         1 UNK         0.0650 
     76 H76        34.0839  -43.5133  -57.0534 H         1 UNK         0.1397 
     77 H77        30.6647  -45.9388  -57.9576 H         1 UNK         0.1363 
     78 H78        30.1495  -42.0621  -56.1921 H         1 UNK         0.1355 
     79 H79        28.3262  -43.9144  -58.0288 H         1 UNK         0.0707 
     80 H80        28.5197  -45.3393  -57.0338 H         1 UNK         0.0707 
     81 H81        28.8978  -43.3487  -53.5829 H         1 UNK         0.1034 
     82 H82        29.5370  -44.6570  -54.5197 H         1 UNK         0.1034 
     83 H83        28.3508  -45.6493  -52.7128 H         1 UNK         0.0482 
     84 H84        27.8156  -43.8242  -51.2463 H         1 UNK         0.3460 
     85 H85        26.1346  -43.3911  -51.0697 H         1 UNK         0.3460 
     86 H86        27.4593  -46.1226  -55.3424 H         1 UNK         0.2989 
     87 H87        27.3567  -48.9493  -55.2936 H         1 UNK         0.0559 
     88 H88        24.4104  -49.0331  -54.4784 H         1 UNK         0.0848 
     89 H89        25.6963  -50.0756  -53.8967 H         1 UNK         0.0848 
     90 H90        25.1893  -50.1750  -55.5746 H         1 UNK         0.0848 
     91 H91        26.8735  -47.8211  -57.0842 H         1 UNK         0.3144 
     92 H92        24.0841  -46.8079  -58.6358 H         1 UNK         0.0727 
     93 H93        23.9551  -44.6136  -57.4745 H         1 UNK         0.0790 
     94 H94        24.7380  -44.4396  -59.0345 H         1 UNK         0.0790 
     95 H95        25.6993  -44.4377  -57.5564 H         1 UNK         0.0790 
     96 H96        26.8645  -46.0412  -59.0427 H         1 UNK         0.3215 
     97 H97        27.4624  -48.5098  -61.3040 H         1 UNK         0.0863 
     98 H98        29.4231  -47.0177  -61.0813 H         1 UNK         0.0808 
     99 H99        28.8187  -46.3571  -59.5729 H         1 UNK         0.0808 
    100 H100       27.9488  -46.0724  -61.0786 H         1 UNK         0.0808 
    101 H101       28.6427  -49.9852  -60.1372 H         1 UNK         0.3118 
    102 H102       28.8271  -50.8222  -57.1196 H         1 UNK         0.0546 
    103 H103       29.0807  -51.8120  -59.3484 H         1 UNK         0.0828 
    104 H104       30.4559  -52.2731  -58.3708 H         1 UNK         0.0828 
    105 H105       30.6360  -51.0182  -59.5896 H         1 UNK         0.0828 
    106 H106       30.5739  -50.2585  -55.9306 H         1 UNK         0.3005 
    107 H107       33.8424  -49.4769  -56.5084 H         1 UNK         0.1257 
    108 H108       33.2321  -47.4266  -54.8269 H         1 UNK         0.0775 
    109 H109       32.0200  -47.0939  -56.0084 H         1 UNK         0.0775 
    110 H110       34.0954  -45.4616  -58.8237 H         1 UNK         0.0840 
    111 H111       32.8138  -46.6361  -58.7270 H         1 UNK         0.0840 
    112 H112       32.0109  -49.3457  -54.2367 H         1 UNK         0.2987 
    113 H113       32.1044  -52.7899  -53.5880 H         1 UNK         0.0785 
    114 H114       34.4243  -52.3559  -52.7574 H         1 UNK         0.0798 
    115 H115       33.2698  -52.3440  -51.4359 H         1 UNK         0.0798 
    116 H116       33.9069  -50.8240  -52.0676 H         1 UNK         0.0798 
    117 H117       31.4442  -50.6044  -51.8776 H         1 UNK         0.3079 
    118 H118       28.3879  -49.6677  -53.3354 H         1 UNK         0.0794 
    119 H119       28.7305  -51.3290  -50.7869 H         1 UNK         0.0786 
    120 H120       27.6950  -51.7555  -52.1432 H         1 UNK         0.0786 
    121 H121       27.3436  -50.3179  -51.2012 H         1 UNK         0.0786 
    122 H122       29.3574  -48.8787  -50.8558 H         1 UNK         0.3032 
    123 H123       30.0350  -46.3833  -51.0180 H         1 UNK         0.1094 
    124 H124       32.5340  -48.1235  -50.5517 H         1 UNK         0.0794 
    125 H125       32.0804  -46.7405  -49.5618 H         1 UNK         0.0794 
    126 H126       31.0566  -48.1606  -49.5949 H         1 UNK         0.0794 
    127 H127       32.6058  -46.4345  -52.5605 H         1 UNK         0.3016 
@<TRIPOS>BOND
     1    1    2 1    
     2    1   67 1    
     3    1   68 1    
     4    1   69 1    
     5    2    3 2    
     6    2    4 am   BACKBONE|DICT|INTERRES
     7    4    5 1    
     8    4   70 1    
     9    5    6 1    
    10    5   65 1    
    11    5   71 1    
    12    6    7 1    
    13    6   72 1    
    14    6   73 1    
    15    7    8 1    
    16    8    9 1    
    17    8   74 1    
    18    8   75 1    
    19    9   10 ar   
    20    9   14 ar   
    21   10   11 ar   
    22   10   76 1    
    23   11   12 ar   
    24   11   48 1    
    25   12   13 ar   
    26   12   77 1    
    27   13   14 ar   
    28   13   15 1    
    29   14   78 1    
    30   15   16 1    
    31   15   79 1    
    32   15   80 1    
    33   16   17 1    
    34   17   18 1    
    35   17   81 1    
    36   17   82 1    
    37   18   19 1    
    38   18   22 1    
    39   18   83 1    
    40   19   20 am   BACKBONE|DICT|INTERRES
    41   19   21 2    
    42   20   84 1    
    43   20   85 1    
    44   22   23 am   BACKBONE|DICT|INTERRES
    45   22   86 1    
    46   23   24 2    
    47   23   25 1    
    48   25   26 1    
    49   25   27 1    
    50   25   87 1    
    51   26   88 1    
    52   26   89 1    
    53   26   90 1    
    54   27   28 am   BACKBONE|DICT|INTERRES
    55   27   91 1    
    56   28   29 2    
    57   28   30 1    
    58   30   31 1    
    59   30   32 1    
    60   30   92 1    
    61   31   93 1    
    62   31   94 1    
    63   31   95 1    
    64   32   33 am   BACKBONE|DICT|INTERRES
    65   32   96 1    
    66   33   34 2    
    67   33   35 1    
    68   35   36 1    
    69   35   37 1    
    70   35   97 1    
    71   36   98 1    
    72   36   99 1    
    73   36  100 1    
    74   37   38 am   BACKBONE|DICT|INTERRES
    75   37  101 1    
    76   38   39 2    
    77   38   40 1    
    78   40   41 1    
    79   40   42 1    
    80   40  102 1    
    81   41  103 1    
    82   41  104 1    
    83   41  105 1    
    84   42   43 am   BACKBONE|DICT|INTERRES
    85   42  106 1    
    86   43   44 2    
    87   43   45 1    
    88   45   46 1    
    89   45   49 1    
    90   45  107 1    
    91   46   47 1    
    92   46  108 1    
    93   46  109 1    
    94   47   48 1    
    95   48  110 1    
    96   48  111 1    
    97   49   50 am   BACKBONE|DICT|INTERRES
    98   49  112 1    
    99   50   51 2    
   100   50   52 1    
   101   52   53 1    
   102   52   54 1    
   103   52  113 1    
   104   53  114 1    
   105   53  115 1    
   106   53  116 1    
   107   54   55 am   BACKBONE|DICT|INTERRES
   108   54  117 1    
   109   55   56 2    
   110   55   57 1    
   111   57   58 1    
   112   57   59 1    
   113   57  118 1    
   114   58  119 1    
   115   58  120 1    
   116   58  121 1    
   117   59   60 am   BACKBONE|DICT|INTERRES
   118   59  122 1    
   119   60   61 2    
   120   60   62 1    
   121   62   63 1    
   122   62   64 1    
   123   62  123 1    
   124   63  124 1    
   125   63  125 1    
   126   63  126 1    
   127   64   65 am   BACKBONE|DICT|INTERRES
   128   64  127 1    
   129   65   66 2    
@<TRIPOS>SUBSTRUCTURE
     1 UNK         1 GROUP             0       ****    0 ROOT    
