@<TRIPOS>MOLECULE
3R134
127   129    1
SMALL
USER_CHARGES


@<TRIPOS>ATOM
      1 CA         33.9717  -43.5398  -51.2519 C.3       0 UNK        -0.1968 
      2 C          34.8232  -44.5757  -51.9717 C.2       0 UNK         0.4852 
      3 O          36.0182  -44.6876  -51.6928 O.2       0 UNK        -0.5359 
      4 N          34.2170  -45.3275  -52.8980 N.am      1 UNK        -0.4300 
      5 CA         34.8555  -46.4151  -53.6446 C.3       1 UNK         0.0863 
      6 C6         34.0691  -46.7631  -54.9323 C.3       11 UNK        -0.0953 
      7 S7         34.1637  -45.4268  -56.1711 S.3       11 UNK        -0.2369 
      8 C8         32.5321  -45.5463  -56.9766 C.3       11 UNK         0.0226 
      9 C9         31.5763  -44.4284  -56.5721 C.ar      11 UNK        -0.0699 
     10 C10        31.3465  -44.1247  -55.2269 C.ar      11 UNK        -0.0804 
     11 C11        30.4196  -43.1425  -54.8601 C.ar      11 UNK        -0.0871 
     12 C12        29.7373  -42.4413  -55.8589 C.ar      11 UNK        -0.1008 
     13 C13        29.9578  -42.7310  -57.2080 C.ar      11 UNK        -0.0735 
     14 C14        30.8815  -43.7198  -57.5567 C.ar      11 UNK        -0.0945 
     15 C15        29.2028  -41.9809  -58.2950 C.3       11 UNK         0.0169 
     16 S16        27.7178  -42.8889  -58.8329 S.3       11 UNK        -0.2669 
     17 C17        26.5107  -42.4792  -57.5223 C.3       11 UNK        -0.0850 
     18 CA         26.3347  -43.6074  -56.4605 C.3       10 UNK         0.0855 
     19 C          25.4047  -43.2203  -55.2700 C.2       10 UNK         0.5543 
     20 N          25.4377  -41.9724  -54.8108 N.am      10 UNK        -0.7343 
     21 O          24.6858  -44.0522  -54.7134 O.2       10 UNK        -0.5027 
     22 N          26.0015  -44.9157  -57.0420 N.am      10 UNK        -0.4495 
     23 C          24.9117  -45.2379  -57.7522 C.2       10 UNK         0.4903 
     24 O          24.0287  -44.4369  -58.0644 O.2       10 UNK        -0.4860 
     25 CA         24.7885  -46.7196  -58.1704 C.3       9 UNK         0.0227 
     26 CB         23.8294  -46.9406  -59.3596 C.3       9 UNK        -0.1964 
     27 N          26.0944  -47.3498  -58.4037 N.am      9 UNK        -0.4231 
     28 C          27.0003  -47.0377  -59.3448 C.2       9 UNK         0.5014 
     29 O          26.7813  -46.2749  -60.2863 O.2       9 UNK        -0.5270 
     30 CA         28.4062  -47.6505  -59.1994 C.3       8 UNK         0.0284 
     31 CB         29.4347  -46.5467  -58.9046 C.3       8 UNK        -0.1977 
     32 N          28.4787  -48.6421  -58.1238 N.am      8 UNK        -0.4342 
     33 C          28.3522  -49.9653  -58.2885 C.2       8 UNK         0.5039 
     34 O          28.2179  -50.5118  -59.3838 O.2       8 UNK        -0.5547 
     35 CA         28.3551  -50.8268  -57.0125 C.3       7 UNK         0.0281 
     36 CB         29.7744  -51.3320  -56.7084 C.3       7 UNK        -0.1963 
     37 N          27.8190  -50.1216  -55.8424 N.am      7 UNK        -0.4444 
     38 C          26.5287  -49.7767  -55.7015 C.2       7 UNK         0.5104 
     39 O          25.6600  -50.0471  -56.5298 O.2       7 UNK        -0.5100 
     40 CA         26.1332  -48.9513  -54.4627 C.3       6 UNK         0.0396 
     41 CB         25.5990  -49.8736  -53.3561 C.3       6 UNK        -0.1801 
     42 N          27.2107  -48.1218  -53.9191 N.am      6 UNK        -0.4747 
     43 C          27.8655  -47.1553  -54.5797 C.2       6 UNK         0.5012 
     44 O          27.6293  -46.8459  -55.7481 O.2       6 UNK        -0.5003 
     45 CA         29.0293  -46.4753  -53.8337 C.3       5 UNK         0.0782 
     46 C46        28.5644  -45.1713  -53.1402 C.3       11 UNK        -0.0868 
     47 S47        29.9529  -44.2960  -52.3372 S.3       11 UNK        -0.2515 
     48 C48        30.1511  -42.8198  -53.3929 C.3       11 UNK         0.0199 
     49 N          29.7067  -47.3847  -52.8988 N.am      5 UNK        -0.4607 
     50 C          30.3605  -48.4960  -53.2554 C.2       4 UNK         0.5031 
     51 O          30.4236  -48.8977  -54.4186 O.2       4 UNK        -0.5119 
     52 CA         31.0294  -49.2728  -52.1112 C.3       4 UNK         0.0263 
     53 CB         30.0055  -50.1101  -51.3169 C.3       4 UNK        -0.1967 
     54 N          32.1682  -50.0658  -52.5880 N.am      4 UNK        -0.4237 
     55 C          32.1735  -51.2220  -53.2727 C.2       3 UNK         0.4908 
     56 O          31.1777  -51.9216  -53.4602 O.2       3 UNK        -0.5102 
     57 CA         33.5160  -51.6815  -53.8810 C.3       3 UNK         0.0241 
     58 CB         33.4008  -51.7915  -55.4122 C.3       3 UNK        -0.1971 
     59 N          34.6391  -50.7944  -53.5628 N.am      3 UNK        -0.4139 
     60 C          35.3262  -50.7970  -52.4127 C.2       2 UNK         0.5016 
     61 O          35.1445  -51.6105  -51.5068 O.2       2 UNK        -0.5319 
     62 CA         36.3686  -49.6773  -52.2284 C.3       2 UNK         0.0286 
     63 CB         37.7677  -50.1758  -52.6250 C.3       2 UNK        -0.1963 
     64 N          36.0647  -48.4440  -52.9703 N.am      2 UNK        -0.4790 
     65 C          34.9968  -47.6624  -52.7515 C.2       1 UNK         0.5024 
     66 O          34.1198  -47.9271  -51.9263 O.2       1 UNK        -0.4888 
     67 H67        32.9402  -43.5430  -51.6033 H         1 UNK         0.0892 
     68 H68        33.9647  -43.7390  -50.1807 H         1 UNK         0.0892 
     69 H69        34.3800  -42.5421  -51.4112 H         1 UNK         0.0892 
     70 H70        33.2257  -45.2214  -53.0433 H         1 UNK         0.3107 
     71 H71        35.8595  -46.0914  -53.9289 H         1 UNK         0.0773 
     72 H72        34.4703  -47.6617  -55.4051 H         1 UNK         0.0680 
     73 H73        33.0263  -46.9835  -54.6944 H         1 UNK         0.0680 
     74 H74        32.0677  -46.5097  -56.7624 H         1 UNK         0.0650 
     75 H75        32.6973  -45.5268  -58.0549 H         1 UNK         0.0650 
     76 H76        31.8757  -44.6714  -54.4622 H         1 UNK         0.1397 
     77 H77        29.0251  -41.6741  -55.5881 H         1 UNK         0.1363 
     78 H78        31.0432  -43.9492  -58.6011 H         1 UNK         0.1355 
     79 H79        28.9330  -40.9781  -57.9607 H         1 UNK         0.0707 
     80 H80        29.8550  -41.8423  -59.1586 H         1 UNK         0.0707 
     81 H81        26.8230  -41.5464  -57.0532 H         1 UNK         0.1034 
     82 H82        25.5547  -42.2591  -57.9996 H         1 UNK         0.1034 
     83 H83        27.3076  -43.7691  -55.9994 H         1 UNK         0.0482 
     84 H84        26.0284  -41.2657  -55.2227 H         1 UNK         0.3460 
     85 H85        24.8487  -41.7311  -54.0290 H         1 UNK         0.3460 
     86 H86        26.6343  -45.6652  -56.7768 H         1 UNK         0.2989 
     87 H87        24.3625  -47.2368  -57.3095 H         1 UNK         0.0559 
     88 H88        24.1400  -46.3812  -60.2423 H         1 UNK         0.0848 
     89 H89        22.8190  -46.6141  -59.1108 H         1 UNK         0.0848 
     90 H90        23.7705  -47.9943  -59.6320 H         1 UNK         0.0848 
     91 H91        26.3816  -48.0106  -57.6954 H         1 UNK         0.3144 
     92 H92        28.6643  -48.1130  -60.1544 H         1 UNK         0.0727 
     93 H93        30.4449  -46.9508  -58.8421 H         1 UNK         0.0790 
     94 H94        29.2151  -46.0363  -57.9657 H         1 UNK         0.0790 
     95 H95        29.4360  -45.7904  -59.6909 H         1 UNK         0.0790 
     96 H96        28.5670  -48.2765  -57.1833 H         1 UNK         0.3215 
     97 H97        27.7199  -51.6951  -57.2016 H         1 UNK         0.0863 
     98 H98        30.4678  -50.5107  -56.5250 H         1 UNK         0.0808 
     99 H99        30.1703  -51.9098  -57.5445 H         1 UNK         0.0808 
    100 H100       29.7857  -51.9812  -55.8329 H         1 UNK         0.0808 
    101 H101       28.4882  -49.8356  -55.1370 H         1 UNK         0.3118 
    102 H102       25.3278  -48.2787  -54.7653 H         1 UNK         0.0546 
    103 H103       25.2191  -49.3013  -52.5096 H         1 UNK         0.0828 
    104 H104       26.3703  -50.5508  -52.9867 H         1 UNK         0.0828 
    105 H105       24.7754  -50.4878  -53.7234 H         1 UNK         0.0828 
    106 H106       27.4930  -48.3147  -52.9690 H         1 UNK         0.3005 
    107 H107       29.7547  -46.2135  -54.6051 H         1 UNK         0.1257 
    108 H108       27.8140  -45.3883  -52.3777 H         1 UNK         0.0775 
    109 H109       28.0823  -44.5025  -53.8547 H         1 UNK         0.0775 
    110 H110       29.2558  -42.2041  -53.2912 H         1 UNK         0.0840 
    111 H111       30.9792  -42.2224  -53.0096 H         1 UNK         0.0840 
    112 H112       29.7054  -47.1006  -51.9294 H         1 UNK         0.2987 
    113 H113       31.4594  -48.5385  -51.4281 H         1 UNK         0.0785 
    114 H114       30.4951  -50.7232  -50.5603 H         1 UNK         0.0798 
    115 H115       29.2937  -49.4662  -50.7994 H         1 UNK         0.0798 
    116 H116       29.4259  -50.7709  -51.9623 H         1 UNK         0.0798 
    117 H117       33.0553  -49.5863  -52.4867 H         1 UNK         0.3079 
    118 H118       33.7285  -52.6756  -53.4817 H         1 UNK         0.0794 
    119 H119       32.6163  -52.4941  -55.6971 H         1 UNK         0.0786 
    120 H120       34.3291  -52.1503  -55.8571 H         1 UNK         0.0786 
    121 H121       33.1561  -50.8310  -55.8679 H         1 UNK         0.0786 
    122 H122       34.8738  -50.0950  -54.2519 H         1 UNK         0.3032 
    123 H123       36.3831  -49.4283  -51.1646 H         1 UNK         0.1094 
    124 H124       37.8259  -50.4170  -53.6871 H         1 UNK         0.0794 
    125 H125       38.5323  -49.4301  -52.4062 H         1 UNK         0.0794 
    126 H126       38.0321  -51.0781  -52.0713 H         1 UNK         0.0794 
    127 H127       36.7373  -48.1637  -53.6710 H         1 UNK         0.3016 
@<TRIPOS>BOND
     1    1    2 1    
     2    1   67 1    
     3    1   68 1    
     4    1   69 1    
     5    2    3 2    
     6    2    4 am   BACKBONE|DICT|INTERRES
     7    4    5 1    
     8    4   70 1    
     9    5    6 1    
    10    5   65 1    
    11    5   71 1    
    12    6    7 1    
    13    6   72 1    
    14    6   73 1    
    15    7    8 1    
    16    8    9 1    
    17    8   74 1    
    18    8   75 1    
    19    9   10 ar   
    20    9   14 ar   
    21   10   11 ar   
    22   10   76 1    
    23   11   12 ar   
    24   11   48 1    
    25   12   13 ar   
    26   12   77 1    
    27   13   14 ar   
    28   13   15 1    
    29   14   78 1    
    30   15   16 1    
    31   15   79 1    
    32   15   80 1    
    33   16   17 1    
    34   17   18 1    
    35   17   81 1    
    36   17   82 1    
    37   18   19 1    
    38   18   22 1    
    39   18   83 1    
    40   19   20 am   BACKBONE|DICT|INTERRES
    41   19   21 2    
    42   20   84 1    
    43   20   85 1    
    44   22   23 am   BACKBONE|DICT|INTERRES
    45   22   86 1    
    46   23   24 2    
    47   23   25 1    
    48   25   26 1    
    49   25   27 1    
    50   25   87 1    
    51   26   88 1    
    52   26   89 1    
    53   26   90 1    
    54   27   28 am   BACKBONE|DICT|INTERRES
    55   27   91 1    
    56   28   29 2    
    57   28   30 1    
    58   30   31 1    
    59   30   32 1    
    60   30   92 1    
    61   31   93 1    
    62   31   94 1    
    63   31   95 1    
    64   32   33 am   BACKBONE|DICT|INTERRES
    65   32   96 1    
    66   33   34 2    
    67   33   35 1    
    68   35   36 1    
    69   35   37 1    
    70   35   97 1    
    71   36   98 1    
    72   36   99 1    
    73   36  100 1    
    74   37   38 am   BACKBONE|DICT|INTERRES
    75   37  101 1    
    76   38   39 2    
    77   38   40 1    
    78   40   41 1    
    79   40   42 1    
    80   40  102 1    
    81   41  103 1    
    82   41  104 1    
    83   41  105 1    
    84   42   43 am   BACKBONE|DICT|INTERRES
    85   42  106 1    
    86   43   44 2    
    87   43   45 1    
    88   45   46 1    
    89   45   49 1    
    90   45  107 1    
    91   46   47 1    
    92   46  108 1    
    93   46  109 1    
    94   47   48 1    
    95   48  110 1    
    96   48  111 1    
    97   49   50 am   BACKBONE|DICT|INTERRES
    98   49  112 1    
    99   50   51 2    
   100   50   52 1    
   101   52   53 1    
   102   52   54 1    
   103   52  113 1    
   104   53  114 1    
   105   53  115 1    
   106   53  116 1    
   107   54   55 am   BACKBONE|DICT|INTERRES
   108   54  117 1    
   109   55   56 2    
   110   55   57 1    
   111   57   58 1    
   112   57   59 1    
   113   57  118 1    
   114   58  119 1    
   115   58  120 1    
   116   58  121 1    
   117   59   60 am   BACKBONE|DICT|INTERRES
   118   59  122 1    
   119   60   61 2    
   120   60   62 1    
   121   62   63 1    
   122   62   64 1    
   123   62  123 1    
   124   63  124 1    
   125   63  125 1    
   126   63  126 1    
   127   64   65 am   BACKBONE|DICT|INTERRES
   128   64  127 1    
   129   65   66 2    
@<TRIPOS>SUBSTRUCTURE
     1 UNK         1 GROUP             0       ****    0 ROOT    
