@<TRIPOS>MOLECULE
3R134
127   129    1
SMALL
USER_CHARGES


@<TRIPOS>ATOM
      1 CA         33.2848  -49.8243  -57.1111 C.3       0 UNK        -0.1968 
      2 C          33.4218  -48.7850  -56.0103 C.2       0 UNK         0.4852 
      3 O          33.3135  -49.1300  -54.8326 O.2       0 UNK        -0.5359 
      4 N          33.6544  -47.5172  -56.3772 N.am      1 UNK        -0.4300 
      5 CA         33.7719  -46.3790  -55.4600 C.3       1 UNK         0.0863 
      6 C6         34.0216  -45.0483  -56.2094 C.3       11 UNK        -0.0953 
      7 S7         32.5950  -44.5316  -57.2233 S.3       11 UNK        -0.2369 
      8 C8         31.9991  -43.0688  -56.3134 C.3       11 UNK         0.0226 
      9 C9         30.9997  -43.4296  -55.2216 C.ar      11 UNK        -0.0699 
     10 C10        31.4221  -44.0340  -54.0338 C.ar      11 UNK        -0.0804 
     11 C11        30.5012  -44.3639  -53.0344 C.ar      11 UNK        -0.0871 
     12 C12        29.1511  -44.0385  -53.2083 C.ar      11 UNK        -0.1008 
     13 C13        28.7225  -43.4028  -54.3769 C.ar      11 UNK        -0.0735 
     14 C14        29.6473  -43.1191  -55.3840 C.ar      11 UNK        -0.0945 
     15 C15        27.2745  -42.9712  -54.5436 C.3       11 UNK         0.0169 
     16 S16        26.2362  -44.3190  -55.1827 S.3       11 UNK        -0.2669 
     17 C17        24.8853  -43.3725  -55.9832 C.3       11 UNK        -0.0850 
     18 CA         24.5554  -43.8415  -57.4337 C.3       10 UNK         0.0855 
     19 C          23.4448  -42.9777  -58.1026 C.2       10 UNK         0.5543 
     20 N          23.4942  -42.7339  -59.4063 N.am      10 UNK        -0.7343 
     21 O          22.5066  -42.5463  -57.4369 O.2       10 UNK        -0.5027 
     22 N          25.7495  -44.0752  -58.2646 N.am      10 UNK        -0.4495 
     23 C          26.7034  -43.1841  -58.5701 C.2       10 UNK         0.4903 
     24 O          26.6497  -41.9841  -58.3000 O.2       10 UNK        -0.4860 
     25 CA         27.9611  -43.7814  -59.2156 C.3       9 UNK         0.0227 
     26 CB         29.1199  -42.7811  -59.3943 C.3       9 UNK        -0.1964 
     27 N          28.3683  -44.9211  -58.3950 N.am      9 UNK        -0.4231 
     28 C          28.8980  -46.0546  -58.8625 C.2       9 UNK         0.5014 
     29 O          29.3469  -46.1893  -60.0018 O.2       9 UNK        -0.5270 
     30 CA         28.8586  -47.2702  -57.9166 C.3       8 UNK         0.0284 
     31 CB         30.0899  -47.2857  -56.9962 C.3       8 UNK        -0.1977 
     32 N          27.6391  -47.4014  -57.1021 N.am      8 UNK        -0.4342 
     33 C          26.3658  -47.3658  -57.5315 C.2       8 UNK         0.5039 
     34 O          26.0340  -47.0573  -58.6776 O.2       8 UNK        -0.5547 
     35 CA         25.2751  -47.7116  -56.4941 C.3       7 UNK         0.0281 
     36 CB         23.9332  -48.1121  -57.1448 C.3       7 UNK        -0.1963 
     37 N          25.7088  -48.7158  -55.5141 N.am      7 UNK        -0.4444 
     38 C          26.0653  -49.9861  -55.7524 C.2       7 UNK         0.5104 
     39 O          26.0423  -50.5170  -56.8638 O.2       7 UNK        -0.5100 
     40 CA         26.5903  -50.7662  -54.5339 C.3       6 UNK         0.0396 
     41 CB         26.7544  -52.2707  -54.8171 C.3       6 UNK        -0.1801 
     42 N          27.8798  -50.2261  -54.1030 N.am      6 UNK        -0.4747 
     43 C          28.0751  -49.1216  -53.3731 C.2       6 UNK         0.5012 
     44 O          27.1410  -48.4445  -52.9394 O.2       6 UNK        -0.5003 
     45 CA         29.5420  -48.6928  -53.1107 C.3       5 UNK         0.0782 
     46 C46        29.6339  -47.5081  -52.1140 C.3       11 UNK        -0.0868 
     47 S47        31.3183  -46.8154  -52.0075 S.3       11 UNK        -0.2515 
     48 C48        30.9767  -45.0424  -51.7569 C.3       11 UNK         0.0199 
     49 N          30.4096  -49.8092  -52.7026 N.am      5 UNK        -0.4607 
     50 C          30.8482  -50.8006  -53.4878 C.2       4 UNK         0.5031 
     51 O          30.5279  -50.9272  -54.6712 O.2       4 UNK        -0.5119 
     52 CA         31.8425  -51.7787  -52.8571 C.3       4 UNK         0.0263 
     53 CB         31.8195  -53.1634  -53.5365 C.3       4 UNK        -0.1967 
     54 N          33.1608  -51.1713  -52.9797 N.am      4 UNK        -0.4237 
     55 C          34.2493  -51.4935  -52.2726 C.2       3 UNK         0.4908 
     56 O          34.2713  -52.3664  -51.4041 O.2       3 UNK        -0.5102 
     57 CA         35.5249  -50.6943  -52.5706 C.3       3 UNK         0.0241 
     58 CB         36.1495  -51.1378  -53.9049 C.3       3 UNK        -0.1971 
     59 N          35.2336  -49.2599  -52.6176 N.am      3 UNK        -0.4139 
     60 C          35.7282  -48.3446  -51.7728 C.2       2 UNK         0.5016 
     61 O          36.5340  -48.6116  -50.8792 O.2       2 UNK        -0.5319 
     62 CA         35.2280  -46.8903  -51.9106 C.3       2 UNK         0.0286 
     63 CB         36.3628  -45.8573  -51.7414 C.3       2 UNK        -0.1963 
     64 N          34.4418  -46.6255  -53.1231 N.am      2 UNK        -0.4790 
     65 C          34.8643  -46.6108  -54.3957 C.2       1 UNK         0.5024 
     66 O          36.0315  -46.7892  -54.7483 O.2       1 UNK        -0.4888 
     67 H67        32.3321  -50.3446  -57.0118 H         1 UNK         0.0892 
     68 H68        33.3257  -49.3763  -58.1036 H         1 UNK         0.0892 
     69 H69        34.0846  -50.5601  -57.0336 H         1 UNK         0.0892 
     70 H70        33.7560  -47.2927  -57.3562 H         1 UNK         0.3107 
     71 H71        32.8101  -46.3097  -54.9488 H         1 UNK         0.0773 
     72 H72        34.2681  -44.2494  -55.5081 H         1 UNK         0.0680 
     73 H73        34.8897  -45.1391  -56.8649 H         1 UNK         0.0680 
     74 H74        31.5372  -42.3928  -57.0342 H         1 UNK         0.0650 
     75 H75        32.8356  -42.5146  -55.8861 H         1 UNK         0.0650 
     76 H76        32.4695  -44.2486  -53.8836 H         1 UNK         0.1397 
     77 H77        28.4344  -44.2645  -52.4305 H         1 UNK         0.1363 
     78 H78        29.3114  -42.6249  -56.2826 H         1 UNK         0.1355 
     79 H79        26.8708  -42.6282  -53.5898 H         1 UNK         0.0707 
     80 H80        27.2330  -42.1148  -55.2185 H         1 UNK         0.0707 
     81 H81        25.1289  -42.3091  -55.9898 H         1 UNK         0.1034 
     82 H82        23.9995  -43.4635  -55.3521 H         1 UNK         0.1034 
     83 H83        24.1002  -44.8275  -57.3402 H         1 UNK         0.0482 
     84 H84        24.2569  -43.0890  -59.9603 H         1 UNK         0.3460 
     85 H85        22.7680  -42.1830  -59.8362 H         1 UNK         0.3460 
     86 H86        25.8776  -45.0366  -58.5672 H         1 UNK         0.2989 
     87 H87        27.6631  -44.1388  -60.2036 H         1 UNK         0.0559 
     88 H88        29.4211  -42.3262  -58.4534 H         1 UNK         0.0848 
     89 H89        28.8303  -41.9716  -60.0652 H         1 UNK         0.0848 
     90 H90        29.9966  -43.2631  -59.8273 H         1 UNK         0.0848 
     91 H91        28.0238  -44.9163  -57.4434 H         1 UNK         0.3144 
     92 H92        28.9033  -48.1593  -58.5487 H         1 UNK         0.0727 
     93 H93        30.1732  -48.2302  -56.4588 H         1 UNK         0.0790 
     94 H94        30.0649  -46.4754  -56.2656 H         1 UNK         0.0790 
     95 H95        31.0058  -47.1700  -57.5767 H         1 UNK         0.0790 
     96 H96        27.7809  -47.6376  -56.1324 H         1 UNK         0.3215 
     97 H97        25.0915  -46.8009  -55.9263 H         1 UNK         0.0863 
     98 H98        24.0395  -48.9833  -57.7916 H         1 UNK         0.0808 
     99 H99        23.5379  -47.3020  -57.7587 H         1 UNK         0.0808 
    100 H100       23.1795  -48.3421  -56.3918 H         1 UNK         0.0808 
    101 H101       25.8229  -48.3858  -54.5602 H         1 UNK         0.3118 
    102 H102       25.8643  -50.6549  -53.7257 H         1 UNK         0.0546 
    103 H103       27.0722  -52.8092  -53.9242 H         1 UNK         0.0828 
    104 H104       27.4910  -52.4578  -55.5997 H         1 UNK         0.0828 
    105 H105       25.8116  -52.7119  -55.1428 H         1 UNK         0.0828 
    106 H106       28.7123  -50.6909  -54.4608 H         1 UNK         0.3005 
    107 H107       29.9167  -48.3304  -54.0699 H         1 UNK         0.1257 
    108 H108       29.3179  -47.8163  -51.1158 H         1 UNK         0.0775 
    109 H109       28.9547  -46.7093  -52.4137 H         1 UNK         0.0775 
    110 H110       30.2454  -44.9223  -50.9559 H         1 UNK         0.0840 
    111 H111       31.8882  -44.5547  -51.4079 H         1 UNK         0.0840 
    112 H112       30.7368  -49.7731  -51.7482 H         1 UNK         0.2987 
    113 H113       31.5916  -51.8983  -51.8010 H         1 UNK         0.0785 
    114 H114       32.4821  -53.8663  -53.0319 H         1 UNK         0.0798 
    115 H115       30.8165  -53.5913  -53.5144 H         1 UNK         0.0798 
    116 H116       32.1283  -53.1053  -54.5811 H         1 UNK         0.0798 
    117 H117       33.2199  -50.4274  -53.6787 H         1 UNK         0.3079 
    118 H118       36.2405  -50.9152  -51.7758 H         1 UNK         0.0794 
    119 H119       37.0846  -50.6106  -54.0952 H         1 UNK         0.0786 
    120 H120       35.4853  -50.9515  -54.7492 H         1 UNK         0.0786 
    121 H121       36.3744  -52.2051  -53.8947 H         1 UNK         0.0786 
    122 H122       34.5674  -48.9591  -53.3229 H         1 UNK         0.3032 
    123 H123       34.5369  -46.7474  -51.0779 H         1 UNK         0.1094 
    124 H124       37.1498  -45.9910  -52.4839 H         1 UNK         0.0794 
    125 H125       35.9881  -44.8374  -51.8271 H         1 UNK         0.0794 
    126 H126       36.8295  -45.9465  -50.7596 H         1 UNK         0.0794 
    127 H127       33.4465  -46.5289  -52.9582 H         1 UNK         0.3016 
@<TRIPOS>BOND
     1    1    2 1    
     2    1   67 1    
     3    1   68 1    
     4    1   69 1    
     5    2    3 2    
     6    2    4 am   BACKBONE|DICT|INTERRES
     7    4    5 1    
     8    4   70 1    
     9    5    6 1    
    10    5   65 1    
    11    5   71 1    
    12    6    7 1    
    13    6   72 1    
    14    6   73 1    
    15    7    8 1    
    16    8    9 1    
    17    8   74 1    
    18    8   75 1    
    19    9   10 ar   
    20    9   14 ar   
    21   10   11 ar   
    22   10   76 1    
    23   11   12 ar   
    24   11   48 1    
    25   12   13 ar   
    26   12   77 1    
    27   13   14 ar   
    28   13   15 1    
    29   14   78 1    
    30   15   16 1    
    31   15   79 1    
    32   15   80 1    
    33   16   17 1    
    34   17   18 1    
    35   17   81 1    
    36   17   82 1    
    37   18   19 1    
    38   18   22 1    
    39   18   83 1    
    40   19   20 am   BACKBONE|DICT|INTERRES
    41   19   21 2    
    42   20   84 1    
    43   20   85 1    
    44   22   23 am   BACKBONE|DICT|INTERRES
    45   22   86 1    
    46   23   24 2    
    47   23   25 1    
    48   25   26 1    
    49   25   27 1    
    50   25   87 1    
    51   26   88 1    
    52   26   89 1    
    53   26   90 1    
    54   27   28 am   BACKBONE|DICT|INTERRES
    55   27   91 1    
    56   28   29 2    
    57   28   30 1    
    58   30   31 1    
    59   30   32 1    
    60   30   92 1    
    61   31   93 1    
    62   31   94 1    
    63   31   95 1    
    64   32   33 am   BACKBONE|DICT|INTERRES
    65   32   96 1    
    66   33   34 2    
    67   33   35 1    
    68   35   36 1    
    69   35   37 1    
    70   35   97 1    
    71   36   98 1    
    72   36   99 1    
    73   36  100 1    
    74   37   38 am   BACKBONE|DICT|INTERRES
    75   37  101 1    
    76   38   39 2    
    77   38   40 1    
    78   40   41 1    
    79   40   42 1    
    80   40  102 1    
    81   41  103 1    
    82   41  104 1    
    83   41  105 1    
    84   42   43 am   BACKBONE|DICT|INTERRES
    85   42  106 1    
    86   43   44 2    
    87   43   45 1    
    88   45   46 1    
    89   45   49 1    
    90   45  107 1    
    91   46   47 1    
    92   46  108 1    
    93   46  109 1    
    94   47   48 1    
    95   48  110 1    
    96   48  111 1    
    97   49   50 am   BACKBONE|DICT|INTERRES
    98   49  112 1    
    99   50   51 2    
   100   50   52 1    
   101   52   53 1    
   102   52   54 1    
   103   52  113 1    
   104   53  114 1    
   105   53  115 1    
   106   53  116 1    
   107   54   55 am   BACKBONE|DICT|INTERRES
   108   54  117 1    
   109   55   56 2    
   110   55   57 1    
   111   57   58 1    
   112   57   59 1    
   113   57  118 1    
   114   58  119 1    
   115   58  120 1    
   116   58  121 1    
   117   59   60 am   BACKBONE|DICT|INTERRES
   118   59  122 1    
   119   60   61 2    
   120   60   62 1    
   121   62   63 1    
   122   62   64 1    
   123   62  123 1    
   124   63  124 1    
   125   63  125 1    
   126   63  126 1    
   127   64   65 am   BACKBONE|DICT|INTERRES
   128   64  127 1    
   129   65   66 2    
@<TRIPOS>SUBSTRUCTURE
     1 UNK         1 GROUP             0       ****    0 ROOT    
