@<TRIPOS>MOLECULE
3R134
127   129    1
SMALL
USER_CHARGES


@<TRIPOS>ATOM
      1 CA         29.7569  -45.4727  -49.3721 C.3       0 UNK        -0.1968 
      2 C          30.9586  -45.3809  -50.3002 C.2       0 UNK         0.4852 
      3 O          31.5827  -46.4061  -50.5853 O.2       0 UNK        -0.5359 
      4 N          31.2786  -44.1641  -50.7700 N.am      1 UNK        -0.4300 
      5 CA         32.3656  -43.8435  -51.7059 C.3       1 UNK         0.0863 
      6 C6         32.0823  -44.4286  -53.1237 C.3       11 UNK        -0.0953 
      7 S7         32.9221  -43.5462  -54.4823 S.3       11 UNK        -0.2369 
      8 C8         33.7227  -44.9271  -55.3791 C.3       11 UNK         0.0226 
      9 C9         32.8305  -45.7300  -56.3318 C.ar      11 UNK        -0.0699 
     10 C10        33.4004  -46.8190  -57.0019 C.ar      11 UNK        -0.0804 
     11 C11        32.6624  -47.5620  -57.9285 C.ar      11 UNK        -0.0871 
     12 C12        31.3285  -47.2237  -58.1695 C.ar      11 UNK        -0.1008 
     13 C13        30.7352  -46.1514  -57.4996 C.ar      11 UNK        -0.0735 
     14 C14        31.4901  -45.4056  -56.5891 C.ar      11 UNK        -0.0945 
     15 C15        29.2889  -45.7794  -57.7926 C.3       11 UNK         0.0169 
     16 S16        28.1504  -46.5313  -56.5918 S.3       11 UNK        -0.2669 
     17 C17        28.2214  -45.3141  -55.2290 C.3       11 UNK        -0.0850 
     18 CA         27.0579  -45.4970  -54.2111 C.3       10 UNK         0.0855 
     19 C          27.2552  -44.6782  -52.8978 C.2       10 UNK         0.5543 
     20 N          26.1926  -44.2929  -52.2019 N.am      10 UNK        -0.7343 
     21 O          28.3800  -44.4143  -52.4837 O.2       10 UNK        -0.5027 
     22 N          25.7338  -45.3510  -54.8434 N.am      10 UNK        -0.4495 
     23 C          25.2133  -44.2263  -55.3508 C.2       10 UNK         0.4903 
     24 O          25.7590  -43.1228  -55.3012 O.2       10 UNK        -0.4860 
     25 CA         23.8747  -44.3851  -56.0953 C.3       9 UNK         0.0227 
     26 CB         23.0544  -43.0820  -56.1085 C.3       9 UNK        -0.1964 
     27 N          24.1218  -44.8126  -57.4733 N.am      9 UNK        -0.4231 
     28 C          24.5165  -46.0411  -57.8309 C.2       9 UNK         0.5014 
     29 O          24.5690  -46.9931  -57.0455 O.2       9 UNK        -0.5270 
     30 CA         24.9539  -46.2401  -59.2912 C.3       8 UNK         0.0284 
     31 CB         25.6354  -44.9980  -59.9056 C.3       8 UNK        -0.1977 
     32 N          25.8757  -47.3680  -59.3151 N.am      8 UNK        -0.4342 
     33 C          26.1075  -48.1997  -60.3343 C.2       8 UNK         0.5039 
     34 O          25.5796  -48.0906  -61.4419 O.2       8 UNK        -0.5547 
     35 CA         27.1085  -49.3437  -60.0829 C.3       7 UNK         0.0281 
     36 CB         28.4328  -49.0687  -60.8154 C.3       7 UNK        -0.1963 
     37 N          27.3925  -49.5536  -58.6599 N.am      7 UNK        -0.4444 
     38 C          26.5964  -50.2042  -57.7998 C.2       7 UNK         0.5104 
     39 O          25.5364  -50.7417  -58.1237 O.2       7 UNK        -0.5100 
     40 CA         27.0701  -50.2379  -56.3318 C.3       6 UNK         0.0396 
     41 CB         26.4453  -51.3920  -55.5201 C.3       6 UNK        -0.1801 
     42 N          28.5347  -50.2217  -56.2040 N.am      6 UNK        -0.4747 
     43 C          29.4041  -51.1644  -56.6091 C.2       6 UNK         0.5012 
     44 O          29.0664  -52.2389  -57.1064 O.2       6 UNK        -0.5003 
     45 CA         30.9087  -50.8415  -56.4773 C.3       5 UNK         0.0782 
     46 C46        31.5606  -50.7457  -57.8806 C.3       11 UNK        -0.0868 
     47 S47        33.3242  -50.2746  -57.8181 S.3       11 UNK        -0.2515 
     48 C48        33.3255  -48.6879  -58.7136 C.3       11 UNK         0.0199 
     49 N          31.1476  -49.6367  -55.6747 N.am      5 UNK        -0.4607 
     50 C          31.1845  -49.6142  -54.3388 C.2       4 UNK         0.5031 
     51 O          30.9890  -50.5986  -53.6227 O.2       4 UNK        -0.5119 
     52 CA         31.4124  -48.2352  -53.7030 C.3       4 UNK         0.0263 
     53 CB         30.0642  -47.6887  -53.2054 C.3       4 UNK        -0.1967 
     54 N          32.3721  -48.2280  -52.5939 N.am      4 UNK        -0.4237 
     55 C          33.6025  -48.7627  -52.5893 C.2       3 UNK         0.4908 
     56 O          34.1153  -49.3406  -53.5495 O.2       3 UNK        -0.5102 
     57 CA         34.3998  -48.5777  -51.2846 C.3       3 UNK         0.0241 
     58 CB         35.5141  -49.6309  -51.1000 C.3       3 UNK        -0.1971 
     59 N          34.9247  -47.2117  -51.1730 N.am      3 UNK        -0.4139 
     60 C          35.8198  -46.6014  -51.9672 C.2       2 UNK         0.5016 
     61 O          36.4343  -47.1526  -52.8814 O.2       2 UNK        -0.5319 
     62 CA         36.0037  -45.0907  -51.7292 C.3       2 UNK         0.0286 
     63 CB         37.1005  -44.4714  -52.6161 C.3       2 UNK        -0.1963 
     64 N          34.7357  -44.4225  -52.0136 N.am      2 UNK        -0.4790 
     65 C          33.7533  -44.2249  -51.1300 C.2       1 UNK         0.5024 
     66 O          33.9134  -44.3641  -49.9145 O.2       1 UNK        -0.4888 
     67 H67        28.9988  -46.1206  -49.8112 H         1 UNK         0.0892 
     68 H68        30.0545  -45.8934  -48.4122 H         1 UNK         0.0892 
     69 H69        29.3044  -44.4976  -49.1929 H         1 UNK         0.0892 
     70 H70        30.7262  -43.3719  -50.4742 H         1 UNK         0.3107 
     71 H71        32.3647  -42.7552  -51.7830 H         1 UNK         0.0773 
     72 H72        31.0155  -44.3624  -53.3401 H         1 UNK         0.0680 
     73 H73        32.3219  -45.4910  -53.1579 H         1 UNK         0.0680 
     74 H74        34.1826  -45.6081  -54.6611 H         1 UNK         0.0650 
     75 H75        34.5414  -44.5049  -55.9635 H         1 UNK         0.0650 
     76 H76        34.4358  -47.0753  -56.8206 H         1 UNK         0.1397 
     77 H77        30.7562  -47.7789  -58.8988 H         1 UNK         0.1363 
     78 H78        31.0238  -44.5639  -56.0993 H         1 UNK         0.1355 
     79 H79        29.1676  -44.6952  -57.8011 H         1 UNK         0.0707 
     80 H80        29.0106  -46.1178  -58.7918 H         1 UNK         0.0707 
     81 H81        28.2057  -44.3032  -55.6389 H         1 UNK         0.1034 
     82 H82        29.1888  -45.4212  -54.7395 H         1 UNK         0.1034 
     83 H83        27.0949  -46.5339  -53.8760 H         1 UNK         0.0482 
     84 H84        26.3234  -43.7709  -51.3503 H         1 UNK         0.3460 
     85 H85        25.2644  -44.5097  -52.5270 H         1 UNK         0.3460 
     86 H86        25.2341  -46.2142  -55.0148 H         1 UNK         0.2989 
     87 H87        23.2826  -45.1475  -55.5842 H         1 UNK         0.0559 
     88 H88        22.8664  -42.7312  -55.0928 H         1 UNK         0.0848 
     89 H89        22.0844  -43.2291  -56.5837 H         1 UNK         0.0848 
     90 H90        23.5690  -42.2798  -56.6391 H         1 UNK         0.0848 
     91 H91        24.1329  -44.0851  -58.1733 H         1 UNK         0.3144 
     92 H92        24.0629  -46.4916  -59.8699 H         1 UNK         0.0727 
     93 H93        26.0184  -45.2109  -60.9039 H         1 UNK         0.0790 
     94 H94        26.4744  -44.6576  -59.2966 H         1 UNK         0.0790 
     95 H95        24.9377  -44.1668  -60.0101 H         1 UNK         0.0790 
     96 H96        26.2836  -47.5814  -58.4135 H         1 UNK         0.3215 
     97 H97        26.6724  -50.2582  -60.4909 H         1 UNK         0.0863 
     98 H98        29.1460  -49.8802  -60.6692 H         1 UNK         0.0808 
     99 H99        28.8980  -48.1426  -60.4768 H         1 UNK         0.0808 
    100 H100       28.2692  -48.9738  -61.8898 H         1 UNK         0.0808 
    101 H101       28.2382  -49.1412  -58.2957 H         1 UNK         0.3118 
    102 H102       26.7208  -49.3048  -55.8870 H         1 UNK         0.0546 
    103 H103       25.3589  -51.3011  -55.4876 H         1 UNK         0.0828 
    104 H104       26.8000  -51.3900  -54.4896 H         1 UNK         0.0828 
    105 H105       26.6741  -52.3659  -55.9532 H         1 UNK         0.0828 
    106 H106       28.9264  -49.3775  -55.8108 H         1 UNK         0.3005 
    107 H107       31.3631  -51.6904  -55.9604 H         1 UNK         0.1257 
    108 H108       31.5002  -51.7116  -58.3860 H         1 UNK         0.0775 
    109 H109       31.0156  -50.0494  -58.5180 H         1 UNK         0.0775 
    110 H110       34.3590  -48.4156  -58.9329 H         1 UNK         0.0840 
    111 H111       32.8416  -48.8166  -59.6833 H         1 UNK         0.0840 
    112 H112       31.3569  -48.7933  -56.1922 H         1 UNK         0.2987 
    113 H113       31.8020  -47.5611  -54.4662 H         1 UNK         0.0785 
    114 H114       29.6951  -48.2537  -52.3485 H         1 UNK         0.0798 
    115 H115       29.3029  -47.7497  -53.9827 H         1 UNK         0.0798 
    116 H116       30.1386  -46.6450  -52.9063 H         1 UNK         0.0798 
    117 H117       32.0712  -47.7161  -51.7648 H         1 UNK         0.3079 
    118 H118       33.6966  -48.7053  -50.4595 H         1 UNK         0.0794 
    119 H119       35.0965  -50.6383  -51.1061 H         1 UNK         0.0786 
    120 H120       36.0304  -49.4986  -50.1492 H         1 UNK         0.0786 
    121 H121       36.2596  -49.5879  -51.8944 H         1 UNK         0.0786 
    122 H122       34.4560  -46.6330  -50.4866 H         1 UNK         0.3032 
    123 H123       36.2894  -44.9460  -50.6844 H         1 UNK         0.1094 
    124 H124       37.2207  -43.4076  -52.4106 H         1 UNK         0.0794 
    125 H125       38.0648  -44.9472  -52.4324 H         1 UNK         0.0794 
    126 H126       36.8771  -44.5837  -53.6779 H         1 UNK         0.0794 
    127 H127       34.5167  -44.2687  -52.9896 H         1 UNK         0.3016 
@<TRIPOS>BOND
     1    1    2 1    
     2    1   67 1    
     3    1   68 1    
     4    1   69 1    
     5    2    3 2    
     6    2    4 am   BACKBONE|DICT|INTERRES
     7    4    5 1    
     8    4   70 1    
     9    5    6 1    
    10    5   65 1    
    11    5   71 1    
    12    6    7 1    
    13    6   72 1    
    14    6   73 1    
    15    7    8 1    
    16    8    9 1    
    17    8   74 1    
    18    8   75 1    
    19    9   10 ar   
    20    9   14 ar   
    21   10   11 ar   
    22   10   76 1    
    23   11   12 ar   
    24   11   48 1    
    25   12   13 ar   
    26   12   77 1    
    27   13   14 ar   
    28   13   15 1    
    29   14   78 1    
    30   15   16 1    
    31   15   79 1    
    32   15   80 1    
    33   16   17 1    
    34   17   18 1    
    35   17   81 1    
    36   17   82 1    
    37   18   19 1    
    38   18   22 1    
    39   18   83 1    
    40   19   20 am   BACKBONE|DICT|INTERRES
    41   19   21 2    
    42   20   84 1    
    43   20   85 1    
    44   22   23 am   BACKBONE|DICT|INTERRES
    45   22   86 1    
    46   23   24 2    
    47   23   25 1    
    48   25   26 1    
    49   25   27 1    
    50   25   87 1    
    51   26   88 1    
    52   26   89 1    
    53   26   90 1    
    54   27   28 am   BACKBONE|DICT|INTERRES
    55   27   91 1    
    56   28   29 2    
    57   28   30 1    
    58   30   31 1    
    59   30   32 1    
    60   30   92 1    
    61   31   93 1    
    62   31   94 1    
    63   31   95 1    
    64   32   33 am   BACKBONE|DICT|INTERRES
    65   32   96 1    
    66   33   34 2    
    67   33   35 1    
    68   35   36 1    
    69   35   37 1    
    70   35   97 1    
    71   36   98 1    
    72   36   99 1    
    73   36  100 1    
    74   37   38 am   BACKBONE|DICT|INTERRES
    75   37  101 1    
    76   38   39 2    
    77   38   40 1    
    78   40   41 1    
    79   40   42 1    
    80   40  102 1    
    81   41  103 1    
    82   41  104 1    
    83   41  105 1    
    84   42   43 am   BACKBONE|DICT|INTERRES
    85   42  106 1    
    86   43   44 2    
    87   43   45 1    
    88   45   46 1    
    89   45   49 1    
    90   45  107 1    
    91   46   47 1    
    92   46  108 1    
    93   46  109 1    
    94   47   48 1    
    95   48  110 1    
    96   48  111 1    
    97   49   50 am   BACKBONE|DICT|INTERRES
    98   49  112 1    
    99   50   51 2    
   100   50   52 1    
   101   52   53 1    
   102   52   54 1    
   103   52  113 1    
   104   53  114 1    
   105   53  115 1    
   106   53  116 1    
   107   54   55 am   BACKBONE|DICT|INTERRES
   108   54  117 1    
   109   55   56 2    
   110   55   57 1    
   111   57   58 1    
   112   57   59 1    
   113   57  118 1    
   114   58  119 1    
   115   58  120 1    
   116   58  121 1    
   117   59   60 am   BACKBONE|DICT|INTERRES
   118   59  122 1    
   119   60   61 2    
   120   60   62 1    
   121   62   63 1    
   122   62   64 1    
   123   62  123 1    
   124   63  124 1    
   125   63  125 1    
   126   63  126 1    
   127   64   65 am   BACKBONE|DICT|INTERRES
   128   64  127 1    
   129   65   66 2    
@<TRIPOS>SUBSTRUCTURE
     1 UNK         1 GROUP             0       ****    0 ROOT    
