@<TRIPOS>MOLECULE
3R134
127   129    1
SMALL
USER_CHARGES


@<TRIPOS>ATOM
      1 CA         37.2942  -47.5518  -54.6781 C.3       0 UNK        -0.1968 
      2 C          35.8431  -47.2492  -54.3394 C.2       0 UNK         0.4852 
      3 O          34.9648  -48.0515  -54.6587 O.2       0 UNK        -0.5359 
      4 N          35.5873  -46.1083  -53.6825 N.am      1 UNK        -0.4300 
      5 CA         34.2607  -45.6017  -53.2983 C.3       1 UNK         0.0863 
      6 C6         34.3618  -44.2583  -52.5386 C.3       11 UNK        -0.0953 
      7 S7         34.9172  -42.9208  -53.6461 S.3       11 UNK        -0.2369 
      8 C8         33.5242  -41.7482  -53.5612 C.3       11 UNK         0.0226 
      9 C9         32.2050  -42.3484  -54.0339 C.ar      11 UNK        -0.0699 
     10 C10        31.1690  -42.5760  -53.1215 C.ar      11 UNK        -0.0804 
     11 C11        29.9365  -43.0837  -53.5458 C.ar      11 UNK        -0.0871 
     12 C12        29.7488  -43.3616  -54.9044 C.ar      11 UNK        -0.1008 
     13 C13        30.7792  -43.1487  -55.8254 C.ar      11 UNK        -0.0735 
     14 C14        32.0050  -42.6408  -55.3859 C.ar      11 UNK        -0.0945 
     15 C15        30.5556  -43.4586  -57.2954 C.3       11 UNK         0.0169 
     16 S16        29.7048  -42.0797  -58.1264 S.3       11 UNK        -0.2669 
     17 C17        29.0394  -42.9242  -59.6024 C.3       11 UNK        -0.0850 
     18 CA         27.5323  -43.2763  -59.4730 C.3       10 UNK         0.0855 
     19 C          27.0299  -43.9691  -60.7723 C.2       10 UNK         0.5543 
     20 N          26.8134  -45.2796  -60.7792 N.am      10 UNK        -0.7343 
     21 O          26.8373  -43.3040  -61.7869 O.2       10 UNK        -0.5027 
     22 N          27.2585  -44.0415  -58.2486 N.am      10 UNK        -0.4495 
     23 C          26.0560  -44.2361  -57.6997 C.2       10 UNK         0.4903 
     24 O          25.0107  -43.7290  -58.1099 O.2       10 UNK        -0.4860 
     25 CA         26.0316  -45.1923  -56.4933 C.3       9 UNK         0.0227 
     26 CB         25.0452  -44.7209  -55.4111 C.3       9 UNK        -0.1964 
     27 N          25.7125  -46.5741  -56.8677 N.am      9 UNK        -0.4231 
     28 C          26.3795  -47.3284  -57.7522 C.2       9 UNK         0.5014 
     29 O          27.3642  -46.9478  -58.3888 O.2       9 UNK        -0.5270 
     30 CA         25.8651  -48.7519  -57.9723 C.3       8 UNK         0.0284 
     31 CB         25.6306  -49.0163  -59.4756 C.3       8 UNK        -0.1977 
     32 N          26.8485  -49.6778  -57.4134 N.am      8 UNK        -0.4342 
     33 C          26.6727  -50.9960  -57.2583 C.2       8 UNK         0.5039 
     34 O          25.6476  -51.5972  -57.5840 O.2       8 UNK        -0.5547 
     35 CA         27.8268  -51.7810  -56.6140 C.3       7 UNK         0.0281 
     36 CB         29.0731  -51.7917  -57.5158 C.3       7 UNK        -0.1963 
     37 N          28.1729  -51.2681  -55.2882 N.am      7 UNK        -0.4444 
     38 C          27.3907  -51.3631  -54.2029 C.2       7 UNK         0.5104 
     39 O          26.3070  -51.9476  -54.1837 O.2       7 UNK        -0.5100 
     40 CA         27.8975  -50.6871  -52.9170 C.3       6 UNK         0.0396 
     41 CB         28.8576  -51.6121  -52.1528 C.3       6 UNK        -0.1801 
     42 N          28.5523  -49.4056  -53.1826 N.am      6 UNK        -0.4747 
     43 C          27.9106  -48.2936  -53.5738 C.2       6 UNK         0.5012 
     44 O          26.6863  -48.2111  -53.6787 O.2       6 UNK        -0.5003 
     45 CA         28.7874  -47.0782  -53.9378 C.3       5 UNK         0.0782 
     46 C46        28.9582  -46.1091  -52.7372 C.3       11 UNK        -0.0868 
     47 S47        27.7549  -44.7411  -52.8023 S.3       11 UNK        -0.2515 
     48 C48        28.8170  -43.2798  -52.5219 C.3       11 UNK         0.0199 
     49 N          30.0713  -47.4685  -54.5294 N.am      5 UNK        -0.4607 
     50 C          30.1868  -48.0605  -55.7266 C.2       4 UNK         0.5031 
     51 O          29.2276  -48.3806  -56.4265 O.2       4 UNK        -0.5119 
     52 CA         31.6041  -48.3943  -56.2089 C.3       4 UNK         0.0263 
     53 CB         32.3339  -47.1200  -56.6635 C.3       4 UNK        -0.1967 
     54 N          32.4036  -49.1043  -55.2081 N.am      4 UNK        -0.4237 
     55 C          32.0815  -50.2891  -54.6666 C.2       3 UNK         0.4908 
     56 O          31.0404  -50.8970  -54.9133 O.2       3 UNK        -0.5102 
     57 CA         33.0799  -50.8915  -53.6699 C.3       3 UNK         0.0241 
     58 CB         34.2874  -51.5008  -54.4012 C.3       3 UNK        -0.1971 
     59 N          33.5345  -49.8825  -52.7154 N.am      3 UNK        -0.4139 
     60 C          32.8905  -49.5778  -51.5803 C.2       2 UNK         0.5016 
     61 O          31.8936  -50.1756  -51.1747 O.2       2 UNK        -0.5319 
     62 CA         33.4369  -48.3938  -50.7612 C.3       2 UNK         0.0286 
     63 CB         34.4391  -48.8866  -49.7051 C.3       2 UNK        -0.1963 
     64 N          34.0664  -47.3496  -51.5764 N.am      2 UNK        -0.4790 
     65 C          33.4225  -46.6140  -52.4947 C.2       1 UNK         0.5024 
     66 O          32.2266  -46.7415  -52.7525 O.2       1 UNK        -0.4888 
     67 H67        37.4129  -47.6475  -55.7569 H         1 UNK         0.0892 
     68 H68        37.9674  -46.7686  -54.3301 H         1 UNK         0.0892 
     69 H69        37.5978  -48.4914  -54.2173 H         1 UNK         0.0892 
     70 H70        36.3564  -45.4922  -53.4604 H         1 UNK         0.3107 
     71 H71        33.7131  -45.4216  -54.2246 H         1 UNK         0.0773 
     72 H72        35.0608  -44.3358  -51.7040 H         1 UNK         0.0680 
     73 H73        33.4028  -43.9825  -52.0972 H         1 UNK         0.0680 
     74 H74        33.7609  -40.8801  -54.1778 H         1 UNK         0.0650 
     75 H75        33.4377  -41.3785  -52.5382 H         1 UNK         0.0650 
     76 H76        31.3189  -42.3417  -52.0764 H         1 UNK         0.1397 
     77 H77        28.7957  -43.7337  -55.2510 H         1 UNK         0.1363 
     78 H78        32.8013  -42.4621  -56.0956 H         1 UNK         0.1355 
     79 H79        31.5049  -43.6526  -57.7974 H         1 UNK         0.0707 
     80 H80        29.9703  -44.3748  -57.3834 H         1 UNK         0.0707 
     81 H81        29.6300  -43.8194  -59.8083 H         1 UNK         0.1034 
     82 H82        29.1958  -42.2635  -60.4575 H         1 UNK         0.1034 
     83 H83        26.9813  -42.3372  -59.3913 H         1 UNK         0.0482 
     84 H84        27.0036  -45.8339  -59.9495 H         1 UNK         0.3460 
     85 H85        26.4893  -45.7245  -61.6226 H         1 UNK         0.3460 
     86 H86        28.0320  -44.5800  -57.8900 H         1 UNK         0.2989 
     87 H87        27.0270  -45.1931  -56.0493 H         1 UNK         0.0559 
     88 H88        24.0136  -44.7377  -55.7650 H         1 UNK         0.0848 
     89 H89        25.2676  -43.6988  -55.1013 H         1 UNK         0.0848 
     90 H90        25.1059  -45.3462  -54.5198 H         1 UNK         0.0848 
     91 H91        24.9115  -46.9807  -56.4063 H         1 UNK         0.3144 
     92 H92        24.9213  -48.8811  -57.4386 H         1 UNK         0.0727 
     93 H93        25.1585  -49.9830  -59.6485 H         1 UNK         0.0790 
     94 H94        26.5651  -48.9959  -60.0378 H         1 UNK         0.0790 
     95 H95        24.9741  -48.2593  -59.9066 H         1 UNK         0.0790 
     96 H96        27.7217  -49.2475  -57.1025 H         1 UNK         0.3215 
     97 H97        27.4956  -52.8149  -56.4942 H         1 UNK         0.0863 
     98 H98        29.4954  -50.7948  -57.6433 H         1 UNK         0.0808 
     99 H99        28.8331  -52.1746  -58.5085 H         1 UNK         0.0808 
    100 H100       29.8535  -52.4304  -57.1015 H         1 UNK         0.0808 
    101 H101       29.0839  -50.8285  -55.1928 H         1 UNK         0.3118 
    102 H102       27.0330  -50.4991  -52.2766 H         1 UNK         0.0546 
    103 H103       29.1677  -51.1678  -51.2069 H         1 UNK         0.0828 
    104 H104       29.7577  -51.8311  -52.7278 H         1 UNK         0.0828 
    105 H105       28.3793  -52.5648  -51.9218 H         1 UNK         0.0828 
    106 H106       29.5621  -49.3917  -53.1454 H         1 UNK         0.3005 
    107 H107       28.2533  -46.5572  -54.7330 H         1 UNK         0.1257 
    108 H108       29.9545  -45.6704  -52.7415 H         1 UNK         0.0775 
    109 H109       28.8762  -46.6184  -51.7748 H         1 UNK         0.0775 
    110 H110       28.1873  -42.3893  -52.5261 H         1 UNK         0.0840 
    111 H111       29.2337  -43.3555  -51.5162 H         1 UNK         0.0840 
    112 H112       30.9062  -47.2535  -53.9889 H         1 UNK         0.2987 
    113 H113       31.5108  -49.0559  -57.0725 H         1 UNK         0.0785 
    114 H114       33.3345  -47.3439  -57.0338 H         1 UNK         0.0798 
    115 H115       31.7901  -46.6288  -57.4714 H         1 UNK         0.0798 
    116 H116       32.4292  -46.3984  -55.8531 H         1 UNK         0.0798 
    117 H117       33.3018  -48.6878  -54.9649 H         1 UNK         0.3079 
    118 H118       32.5737  -51.6972  -53.1333 H         1 UNK         0.0794 
    119 H119       34.9742  -51.9759  -53.7006 H         1 UNK         0.0786 
    120 H120       34.8478  -50.7521  -54.9622 H         1 UNK         0.0786 
    121 H121       33.9667  -52.2659  -55.1096 H         1 UNK         0.0786 
    122 H122       34.3035  -49.2933  -53.0102 H         1 UNK         0.3032 
    123 H123       32.5865  -47.9431  -50.2441 H         1 UNK         0.1094 
    124 H124       33.9897  -49.6496  -49.0677 H         1 UNK         0.0794 
    125 H125       35.3263  -49.3260  -50.1630 H         1 UNK         0.0794 
    126 H126       34.7627  -48.0741  -49.0543 H         1 UNK         0.0794 
    127 H127       35.0544  -47.1908  -51.4388 H         1 UNK         0.3016 
@<TRIPOS>BOND
     1    1    2 1    
     2    1   67 1    
     3    1   68 1    
     4    1   69 1    
     5    2    3 2    
     6    2    4 am   BACKBONE|DICT|INTERRES
     7    4    5 1    
     8    4   70 1    
     9    5    6 1    
    10    5   65 1    
    11    5   71 1    
    12    6    7 1    
    13    6   72 1    
    14    6   73 1    
    15    7    8 1    
    16    8    9 1    
    17    8   74 1    
    18    8   75 1    
    19    9   10 ar   
    20    9   14 ar   
    21   10   11 ar   
    22   10   76 1    
    23   11   12 ar   
    24   11   48 1    
    25   12   13 ar   
    26   12   77 1    
    27   13   14 ar   
    28   13   15 1    
    29   14   78 1    
    30   15   16 1    
    31   15   79 1    
    32   15   80 1    
    33   16   17 1    
    34   17   18 1    
    35   17   81 1    
    36   17   82 1    
    37   18   19 1    
    38   18   22 1    
    39   18   83 1    
    40   19   20 am   BACKBONE|DICT|INTERRES
    41   19   21 2    
    42   20   84 1    
    43   20   85 1    
    44   22   23 am   BACKBONE|DICT|INTERRES
    45   22   86 1    
    46   23   24 2    
    47   23   25 1    
    48   25   26 1    
    49   25   27 1    
    50   25   87 1    
    51   26   88 1    
    52   26   89 1    
    53   26   90 1    
    54   27   28 am   BACKBONE|DICT|INTERRES
    55   27   91 1    
    56   28   29 2    
    57   28   30 1    
    58   30   31 1    
    59   30   32 1    
    60   30   92 1    
    61   31   93 1    
    62   31   94 1    
    63   31   95 1    
    64   32   33 am   BACKBONE|DICT|INTERRES
    65   32   96 1    
    66   33   34 2    
    67   33   35 1    
    68   35   36 1    
    69   35   37 1    
    70   35   97 1    
    71   36   98 1    
    72   36   99 1    
    73   36  100 1    
    74   37   38 am   BACKBONE|DICT|INTERRES
    75   37  101 1    
    76   38   39 2    
    77   38   40 1    
    78   40   41 1    
    79   40   42 1    
    80   40  102 1    
    81   41  103 1    
    82   41  104 1    
    83   41  105 1    
    84   42   43 am   BACKBONE|DICT|INTERRES
    85   42  106 1    
    86   43   44 2    
    87   43   45 1    
    88   45   46 1    
    89   45   49 1    
    90   45  107 1    
    91   46   47 1    
    92   46  108 1    
    93   46  109 1    
    94   47   48 1    
    95   48  110 1    
    96   48  111 1    
    97   49   50 am   BACKBONE|DICT|INTERRES
    98   49  112 1    
    99   50   51 2    
   100   50   52 1    
   101   52   53 1    
   102   52   54 1    
   103   52  113 1    
   104   53  114 1    
   105   53  115 1    
   106   53  116 1    
   107   54   55 am   BACKBONE|DICT|INTERRES
   108   54  117 1    
   109   55   56 2    
   110   55   57 1    
   111   57   58 1    
   112   57   59 1    
   113   57  118 1    
   114   58  119 1    
   115   58  120 1    
   116   58  121 1    
   117   59   60 am   BACKBONE|DICT|INTERRES
   118   59  122 1    
   119   60   61 2    
   120   60   62 1    
   121   62   63 1    
   122   62   64 1    
   123   62  123 1    
   124   63  124 1    
   125   63  125 1    
   126   63  126 1    
   127   64   65 am   BACKBONE|DICT|INTERRES
   128   64  127 1    
   129   65   66 2    
@<TRIPOS>SUBSTRUCTURE
     1 UNK         1 GROUP             0       ****    0 ROOT    
