@<TRIPOS>MOLECULE
3R134
127   129    1
SMALL
USER_CHARGES


@<TRIPOS>ATOM
      1 CA         31.3565  -41.8948  -54.9714 C.3       0 UNK        -0.1968 
      2 C          32.0592  -41.9207  -53.6212 C.2       0 UNK         0.4852 
      3 O          31.9004  -40.9899  -52.8297 O.2       0 UNK        -0.5359 
      4 N          32.8354  -42.9793  -53.3646 N.am      1 UNK        -0.4300 
      5 CA         33.5168  -43.2632  -52.0999 C.3       1 UNK         0.0863 
      6 C6         34.9648  -43.7778  -52.3446 C.3       11 UNK        -0.0953 
      7 S7         35.1376  -45.4814  -52.9917 S.3       11 UNK        -0.2369 
      8 C8         34.8963  -45.2570  -54.7881 C.3       11 UNK         0.0226 
      9 C9         33.4723  -45.4881  -55.3062 C.ar      11 UNK        -0.0699 
     10 C10        33.2419  -45.3489  -56.6790 C.ar      11 UNK        -0.0804 
     11 C11        31.9717  -45.5690  -57.2194 C.ar      11 UNK        -0.0871 
     12 C12        30.9091  -45.8825  -56.3720 C.ar      11 UNK        -0.1008 
     13 C13        31.1219  -46.0435  -55.0032 C.ar      11 UNK        -0.0735 
     14 C14        32.4025  -45.8619  -54.4792 C.ar      11 UNK        -0.0945 
     15 C15        29.9593  -46.4127  -54.1007 C.3       11 UNK         0.0169 
     16 S16        29.3315  -48.0725  -54.5027 S.3       11 UNK        -0.2669 
     17 C17        27.7129  -48.0423  -53.6611 C.3       11 UNK        -0.0850 
     18 CA         26.5505  -47.7820  -54.6618 C.3       10 UNK         0.0855 
     19 C          25.1397  -48.1150  -54.0854 C.2       10 UNK         0.5543 
     20 N          24.0729  -47.4586  -54.5293 N.am      10 UNK        -0.7343 
     21 O          24.9995  -49.0063  -53.2519 O.2       10 UNK        -0.5027 
     22 N          26.6440  -46.4717  -55.3281 N.am      10 UNK        -0.4495 
     23 C          26.4558  -45.2721  -54.7571 C.2       10 UNK         0.4903 
     24 O          26.2889  -45.1015  -53.5496 O.2       10 UNK        -0.4860 
     25 CA         26.4262  -44.0467  -55.6928 C.3       9 UNK         0.0227 
     26 CB         27.7918  -43.3397  -55.6920 C.3       9 UNK        -0.1964 
     27 N          26.0473  -44.3663  -57.0736 N.am      9 UNK        -0.4231 
     28 C          24.8865  -44.9193  -57.4549 C.2       9 UNK         0.5014 
     29 O          23.9488  -45.1482  -56.6884 O.2       9 UNK        -0.5270 
     30 CA         24.7777  -45.3735  -58.9224 C.3       8 UNK         0.0284 
     31 CB         25.7312  -44.6282  -59.8854 C.3       8 UNK        -0.1977 
     32 N          24.9545  -46.8284  -59.0323 N.am      8 UNK        -0.4342 
     33 C          26.0189  -47.5381  -58.6310 C.2       8 UNK         0.5039 
     34 O          27.0417  -47.0415  -58.1434 O.2       8 UNK        -0.5547 
     35 CA         25.9278  -49.0604  -58.7817 C.3       7 UNK         0.0281 
     36 CB         26.1048  -49.4904  -60.2493 C.3       7 UNK        -0.1963 
     37 N          26.9919  -49.6311  -57.9681 N.am      7 UNK        -0.4444 
     38 C          27.0512  -50.8600  -57.4489 C.2       7 UNK         0.5104 
     39 O          26.1761  -51.7123  -57.6085 O.2       7 UNK        -0.5100 
     40 CA         28.3002  -51.1731  -56.5953 C.3       6 UNK         0.0396 
     41 CB         28.6154  -52.6820  -56.5281 C.3       6 UNK        -0.1801 
     42 N          29.4897  -50.4044  -56.9966 N.am      6 UNK        -0.4747 
     43 C          30.1075  -50.4358  -58.1899 C.2       6 UNK         0.5012 
     44 O          29.7677  -51.1643  -59.1229 O.2       6 UNK        -0.5003 
     45 CA         31.2979  -49.4764  -58.3871 C.3       5 UNK         0.0782 
     46 C46        30.8165  -48.1605  -59.0504 C.3       11 UNK        -0.0868 
     47 S47        32.1942  -47.0623  -59.5330 S.3       11 UNK        -0.2515 
     48 C48        31.7523  -45.4917  -58.7207 C.3       11 UNK         0.0199 
     49 N          32.0707  -49.2575  -57.1538 N.am      5 UNK        -0.4607 
     50 C          32.8446  -50.1993  -56.5905 C.2       4 UNK         0.5031 
     51 O          32.9075  -51.3625  -56.9877 O.2       4 UNK        -0.5119 
     52 CA         33.7059  -49.7758  -55.3969 C.3       4 UNK         0.0263 
     53 CB         34.7874  -48.7691  -55.8364 C.3       4 UNK        -0.1967 
     54 N          32.8650  -49.2715  -54.3087 N.am      4 UNK        -0.4237 
     55 C          33.2776  -49.0816  -53.0485 C.2       3 UNK         0.4908 
     56 O          34.4482  -49.1828  -52.6750 O.2       3 UNK        -0.5102 
     57 CA         32.1963  -48.7862  -52.0049 C.3       3 UNK         0.0241 
     58 CB         31.8677  -50.0658  -51.2082 C.3       3 UNK        -0.1971 
     59 N          32.6586  -47.7152  -51.1232 N.am      3 UNK        -0.4139 
     60 C          31.9023  -47.0650  -50.2287 C.2       2 UNK         0.5016 
     61 O          30.7140  -47.3121  -50.0202 O.2       2 UNK        -0.5319 
     62 CA         32.5790  -45.9238  -49.4476 C.3       2 UNK         0.0286 
     63 CB         33.5770  -46.4759  -48.4159 C.3       2 UNK        -0.1963 
     64 N          33.2531  -44.9559  -50.3185 N.am      2 UNK        -0.4790 
     65 C          32.6313  -44.1707  -51.2109 C.2       1 UNK         0.5024 
     66 O          31.4054  -44.1495  -51.3432 O.2       1 UNK        -0.4888 
     67 H67        31.7677  -41.1006  -55.5937 H         1 UNK         0.0892 
     68 H68        31.4651  -42.8384  -55.5068 H         1 UNK         0.0892 
     69 H69        30.2922  -41.7056  -54.8364 H         1 UNK         0.0892 
     70 H70        32.8846  -43.7241  -54.0467 H         1 UNK         0.3107 
     71 H71        33.6143  -42.3282  -51.5446 H         1 UNK         0.0773 
     72 H72        35.4888  -43.0945  -53.0147 H         1 UNK         0.0680 
     73 H73        35.5283  -43.7307  -51.4114 H         1 UNK         0.0680 
     74 H74        35.2276  -44.2586  -55.0764 H         1 UNK         0.0650 
     75 H75        35.5644  -45.9521  -55.2970 H         1 UNK         0.0650 
     76 H76        34.0625  -45.0951  -57.3366 H         1 UNK         0.1397 
     77 H77        29.9169  -46.0328  -56.7759 H         1 UNK         0.1363 
     78 H78        32.5469  -46.0097  -53.4206 H         1 UNK         0.1355 
     79 H79        29.1748  -45.6700  -54.2296 H         1 UNK         0.0707 
     80 H80        30.2438  -46.3728  -53.0480 H         1 UNK         0.0707 
     81 H81        27.7127  -47.3052  -52.8566 H         1 UNK         0.1034 
     82 H82        27.5934  -49.0124  -53.1757 H         1 UNK         0.1034 
     83 H83        26.6665  -48.5075  -55.4649 H         1 UNK         0.0482 
     84 H84        24.1636  -46.7181  -55.2138 H         1 UNK         0.3460 
     85 H85        23.1650  -47.6899  -54.1588 H         1 UNK         0.3460 
     86 H86        26.7948  -46.5101  -56.3331 H         1 UNK         0.2989 
     87 H87        25.6800  -43.3541  -55.2985 H         1 UNK         0.0559 
     88 H88        27.7588  -42.4093  -56.2592 H         1 UNK         0.0848 
     89 H89        28.5737  -43.9671  -56.1207 H         1 UNK         0.0848 
     90 H90        28.0989  -43.0866  -54.6761 H         1 UNK         0.0848 
     91 H91        26.7695  -44.2769  -57.7737 H         1 UNK         0.3144 
     92 H92        23.7559  -45.1543  -59.2363 H         1 UNK         0.0727 
     93 H93        25.5212  -44.8961  -60.9209 H         1 UNK         0.0790 
     94 H94        26.7814  -44.8552  -59.6996 H         1 UNK         0.0790 
     95 H95        25.6053  -43.5475  -59.8050 H         1 UNK         0.0790 
     96 H96        24.1546  -47.3327  -59.3902 H         1 UNK         0.3215 
     97 H97        24.9604  -49.3963  -58.4023 H         1 UNK         0.0863 
     98 H98        26.0580  -50.5745  -60.3533 H         1 UNK         0.0808 
     99 H99        27.0635  -49.1591  -60.6509 H         1 UNK         0.0808 
    100 H100       25.3215  -49.0718  -60.8821 H         1 UNK         0.0808 
    101 H101       27.7216  -48.9635  -57.7477 H         1 UNK         0.3118 
    102 H102       28.0588  -50.8456  -55.5831 H         1 UNK         0.0546 
    103 H103       28.7945  -53.1035  -57.5175 H         1 UNK         0.0828 
    104 H104       27.7863  -53.2356  -56.0858 H         1 UNK         0.0828 
    105 H105       29.4960  -52.8763  -55.9161 H         1 UNK         0.0828 
    106 H106       29.8345  -49.7487  -56.3078 H         1 UNK         0.3005 
    107 H107       31.9659  -49.9703  -59.0973 H         1 UNK         0.1257 
    108 H108       30.2564  -48.3806  -59.9617 H         1 UNK         0.0775 
    109 H109       30.1179  -47.6339  -58.4004 H         1 UNK         0.0775 
    110 H110       32.3642  -44.6918  -59.1402 H         1 UNK         0.0840 
    111 H111       30.7168  -45.2350  -58.9510 H         1 UNK         0.0840 
    112 H112       32.1012  -48.3092  -56.8044 H         1 UNK         0.2987 
    113 H113       34.2115  -50.6708  -55.0275 H         1 UNK         0.0785 
    114 H114       34.3525  -47.8815  -56.2896 H         1 UNK         0.0798 
    115 H115       35.4168  -48.4515  -55.0059 H         1 UNK         0.0798 
    116 H116       35.4458  -49.2157  -56.5824 H         1 UNK         0.0798 
    117 H117       31.8798  -49.1826  -54.5180 H         1 UNK         0.3079 
    118 H118       31.2942  -48.4455  -52.5086 H         1 UNK         0.0794 
    119 H119       31.5838  -50.8798  -51.8765 H         1 UNK         0.0786 
    120 H120       31.0346  -49.9138  -50.5224 H         1 UNK         0.0786 
    121 H121       32.7243  -50.4053  -50.6246 H         1 UNK         0.0786 
    122 H122       33.6289  -47.4525  -51.2442 H         1 UNK         0.3032 
    123 H123       31.7934  -45.3920  -48.9054 H         1 UNK         0.1094 
    124 H124       33.0943  -47.1974  -47.7550 H         1 UNK         0.0794 
    125 H125       34.4185  -46.9816  -48.8910 H         1 UNK         0.0794 
    126 H126       33.9762  -45.6804  -47.7863 H         1 UNK         0.0794 
    127 H127       34.2622  -44.9313  -50.2773 H         1 UNK         0.3016 
@<TRIPOS>BOND
     1    1    2 1    
     2    1   67 1    
     3    1   68 1    
     4    1   69 1    
     5    2    3 2    
     6    2    4 am   BACKBONE|DICT|INTERRES
     7    4    5 1    
     8    4   70 1    
     9    5    6 1    
    10    5   65 1    
    11    5   71 1    
    12    6    7 1    
    13    6   72 1    
    14    6   73 1    
    15    7    8 1    
    16    8    9 1    
    17    8   74 1    
    18    8   75 1    
    19    9   10 ar   
    20    9   14 ar   
    21   10   11 ar   
    22   10   76 1    
    23   11   12 ar   
    24   11   48 1    
    25   12   13 ar   
    26   12   77 1    
    27   13   14 ar   
    28   13   15 1    
    29   14   78 1    
    30   15   16 1    
    31   15   79 1    
    32   15   80 1    
    33   16   17 1    
    34   17   18 1    
    35   17   81 1    
    36   17   82 1    
    37   18   19 1    
    38   18   22 1    
    39   18   83 1    
    40   19   20 am   BACKBONE|DICT|INTERRES
    41   19   21 2    
    42   20   84 1    
    43   20   85 1    
    44   22   23 am   BACKBONE|DICT|INTERRES
    45   22   86 1    
    46   23   24 2    
    47   23   25 1    
    48   25   26 1    
    49   25   27 1    
    50   25   87 1    
    51   26   88 1    
    52   26   89 1    
    53   26   90 1    
    54   27   28 am   BACKBONE|DICT|INTERRES
    55   27   91 1    
    56   28   29 2    
    57   28   30 1    
    58   30   31 1    
    59   30   32 1    
    60   30   92 1    
    61   31   93 1    
    62   31   94 1    
    63   31   95 1    
    64   32   33 am   BACKBONE|DICT|INTERRES
    65   32   96 1    
    66   33   34 2    
    67   33   35 1    
    68   35   36 1    
    69   35   37 1    
    70   35   97 1    
    71   36   98 1    
    72   36   99 1    
    73   36  100 1    
    74   37   38 am   BACKBONE|DICT|INTERRES
    75   37  101 1    
    76   38   39 2    
    77   38   40 1    
    78   40   41 1    
    79   40   42 1    
    80   40  102 1    
    81   41  103 1    
    82   41  104 1    
    83   41  105 1    
    84   42   43 am   BACKBONE|DICT|INTERRES
    85   42  106 1    
    86   43   44 2    
    87   43   45 1    
    88   45   46 1    
    89   45   49 1    
    90   45  107 1    
    91   46   47 1    
    92   46  108 1    
    93   46  109 1    
    94   47   48 1    
    95   48  110 1    
    96   48  111 1    
    97   49   50 am   BACKBONE|DICT|INTERRES
    98   49  112 1    
    99   50   51 2    
   100   50   52 1    
   101   52   53 1    
   102   52   54 1    
   103   52  113 1    
   104   53  114 1    
   105   53  115 1    
   106   53  116 1    
   107   54   55 am   BACKBONE|DICT|INTERRES
   108   54  117 1    
   109   55   56 2    
   110   55   57 1    
   111   57   58 1    
   112   57   59 1    
   113   57  118 1    
   114   58  119 1    
   115   58  120 1    
   116   58  121 1    
   117   59   60 am   BACKBONE|DICT|INTERRES
   118   59  122 1    
   119   60   61 2    
   120   60   62 1    
   121   62   63 1    
   122   62   64 1    
   123   62  123 1    
   124   63  124 1    
   125   63  125 1    
   126   63  126 1    
   127   64   65 am   BACKBONE|DICT|INTERRES
   128   64  127 1    
   129   65   66 2    
@<TRIPOS>SUBSTRUCTURE
     1 UNK         1 GROUP             0       ****    0 ROOT    
