@<TRIPOS>MOLECULE
3R134
127   129    1
SMALL
USER_CHARGES


@<TRIPOS>ATOM
      1 CA         30.2590  -44.6541  -51.1115 C.3       0 UNK        -0.1968 
      2 C          31.6552  -44.8575  -51.6812 C.2       0 UNK         0.4852 
      3 O          31.7868  -45.3461  -52.8015 O.2       0 UNK        -0.5359 
      4 N          32.6903  -44.4935  -50.9105 N.am      1 UNK        -0.4300 
      5 CA         34.1278  -44.5218  -51.2349 C.3       1 UNK         0.0863 
      6 C6         34.5307  -43.6650  -52.4653 C.3       11 UNK        -0.0953 
      7 S7         33.9356  -41.9404  -52.3419 S.3       11 UNK        -0.2369 
      8 C8         33.8463  -41.4182  -54.0881 C.3       11 UNK         0.0226 
      9 C9         32.9891  -42.3437  -54.9427 C.ar      11 UNK        -0.0699 
     10 C10        33.5708  -43.0706  -55.9832 C.ar      11 UNK        -0.0804 
     11 C11        32.8135  -43.9601  -56.7497 C.ar      11 UNK        -0.0871 
     12 C12        31.4475  -44.1112  -56.4656 C.ar      11 UNK        -0.1008 
     13 C13        30.8469  -43.3828  -55.4306 C.ar      11 UNK        -0.0735 
     14 C14        31.6257  -42.4947  -54.6812 C.ar      11 UNK        -0.0945 
     15 C15        29.3819  -43.5796  -55.0485 C.3       11 UNK         0.0169 
     16 S16        28.2446  -43.7987  -56.4621 S.3       11 UNK        -0.2669 
     17 C17        26.6491  -43.4244  -55.6564 C.3       11 UNK        -0.0850 
     18 CA         25.9391  -44.6879  -55.0812 C.3       10 UNK         0.0855 
     19 C          24.9096  -44.3533  -53.9553 C.2       10 UNK         0.5543 
     20 N          23.8598  -45.1440  -53.7652 N.am      10 UNK        -0.7343 
     21 O          25.0767  -43.3861  -53.2163 O.2       10 UNK        -0.5027 
     22 N          25.4181  -45.6028  -56.1175 N.am      10 UNK        -0.4495 
     23 C          24.4380  -45.3245  -56.9906 C.2       10 UNK         0.4903 
     24 O          23.9333  -44.2073  -57.1163 O.2       10 UNK        -0.4860 
     25 CA         23.8796  -46.5017  -57.8184 C.3       9 UNK         0.0227 
     26 CB         23.0016  -46.0404  -59.0024 C.3       9 UNK        -0.1964 
     27 N          24.8907  -47.4631  -58.2705 N.am      9 UNK        -0.4231 
     28 C          25.9292  -47.2418  -59.0886 C.2       9 UNK         0.5014 
     29 O          26.2134  -46.1393  -59.5599 O.2       9 UNK        -0.5270 
     30 CA         26.7757  -48.4803  -59.4480 C.3       8 UNK         0.0284 
     31 CB         27.9981  -48.1385  -60.3215 C.3       8 UNK        -0.1977 
     32 N          27.2179  -49.1925  -58.2454 N.am      8 UNK        -0.4342 
     33 C          26.4841  -50.0927  -57.5726 C.2       8 UNK         0.5039 
     34 O          25.3557  -50.4356  -57.9278 O.2       8 UNK        -0.5547 
     35 CA         27.0587  -50.6732  -56.2648 C.3       7 UNK         0.0281 
     36 CB         27.7632  -52.0113  -56.5385 C.3       7 UNK        -0.1963 
     37 N          27.9839  -49.7777  -55.5687 N.am      7 UNK        -0.4444 
     38 C          27.6955  -48.5406  -55.1403 C.2       7 UNK         0.5104 
     39 O          26.5687  -48.0461  -55.1828 O.2       7 UNK        -0.5100 
     40 CA         28.8755  -47.6897  -54.6379 C.3       6 UNK         0.0396 
     41 CB         29.0028  -47.8052  -53.1135 C.3       6 UNK        -0.1801 
     42 N          30.1593  -48.0247  -55.2675 N.am      6 UNK        -0.4747 
     43 C          30.4049  -47.9797  -56.5870 C.2       6 UNK         0.5012 
     44 O          29.5621  -47.6525  -57.4205 O.2       6 UNK        -0.5003 
     45 CA         31.7886  -48.4494  -57.0680 C.3       5 UNK         0.0782 
     46 C46        32.8466  -47.3226  -57.0093 C.3       11 UNK        -0.0868 
     47 S47        32.7020  -46.2305  -58.4636 S.3       11 UNK        -0.2515 
     48 C48        33.5233  -44.7141  -57.8757 C.3       11 UNK         0.0199 
     49 N          32.2031  -49.6444  -56.3322 N.am      5 UNK        -0.4607 
     50 C          31.9092  -50.8951  -56.7151 C.2       4 UNK         0.5031 
     51 O          31.3248  -51.1693  -57.7631 O.2       4 UNK        -0.5119 
     52 CA         32.3267  -52.0432  -55.7788 C.3       4 UNK         0.0263 
     53 CB         33.6947  -52.6052  -56.1979 C.3       4 UNK        -0.1967 
     54 N          32.3739  -51.6609  -54.3667 N.am      4 UNK        -0.4237 
     55 C          31.3072  -51.3116  -53.6344 C.2       3 UNK         0.4908 
     56 O          30.1523  -51.3022  -54.0612 O.2       3 UNK        -0.5102 
     57 CA         31.5871  -50.8486  -52.1937 C.3       3 UNK         0.0241 
     58 CB         31.6130  -52.0527  -51.2387 C.3       3 UNK        -0.1971 
     59 N          32.8223  -50.0675  -52.0349 N.am      3 UNK        -0.4139 
     60 C          33.1114  -48.9405  -52.7009 C.2       2 UNK         0.5016 
     61 O          32.4124  -48.4779  -53.6048 O.2       2 UNK        -0.5319 
     62 CA         34.4066  -48.2184  -52.3263 C.3       2 UNK         0.0286 
     63 CB         35.4692  -48.3881  -53.4261 C.3       2 UNK        -0.1963 
     64 N          34.0867  -46.8062  -52.1547 N.am      2 UNK        -0.4790 
     65 C          34.7054  -45.9506  -51.3361 C.2       1 UNK         0.5024 
     66 O          35.6881  -46.2532  -50.6574 O.2       1 UNK        -0.4888 
     67 H67        29.8025  -45.6158  -50.8805 H         1 UNK         0.0892 
     68 H68        29.6292  -44.1424  -51.8386 H         1 UNK         0.0892 
     69 H69        30.2742  -44.0563  -50.2004 H         1 UNK         0.0892 
     70 H70        32.4881  -44.1298  -49.9899 H         1 UNK         0.3107 
     71 H71        34.6126  -44.0689  -50.3683 H         1 UNK         0.0773 
     72 H72        34.1482  -44.1255  -53.3763 H         1 UNK         0.0680 
     73 H73        35.6164  -43.6371  -52.5727 H         1 UNK         0.0680 
     74 H74        33.4346  -40.4092  -54.1330 H         1 UNK         0.0650 
     75 H75        34.8612  -41.3532  -54.4833 H         1 UNK         0.0650 
     76 H76        34.6259  -42.9525  -56.1900 H         1 UNK         0.1397 
     77 H77        30.8456  -44.8028  -57.0377 H         1 UNK         0.1363 
     78 H78        31.1817  -41.9437  -53.8636 H         1 UNK         0.1355 
     79 H79        29.0499  -42.7231  -54.4604 H         1 UNK         0.0707 
     80 H80        29.3094  -44.4480  -54.3935 H         1 UNK         0.0707 
     81 H81        26.0109  -42.9131  -56.3769 H         1 UNK         0.1034 
     82 H82        26.8328  -42.6832  -54.8777 H         1 UNK         0.1034 
     83 H83        26.7000  -45.2638  -54.5548 H         1 UNK         0.0482 
     84 H84        23.7236  -45.9589  -54.3410 H         1 UNK         0.3460 
     85 H85        23.2061  -44.9288  -53.0290 H         1 UNK         0.3460 
     86 H86        25.7589  -46.5579  -56.0450 H         1 UNK         0.2989 
     87 H87        23.2332  -47.0566  -57.1371 H         1 UNK         0.0559 
     88 H88        22.5911  -46.8897  -59.5484 H         1 UNK         0.0848 
     89 H89        23.5641  -45.4277  -59.7077 H         1 UNK         0.0848 
     90 H90        22.1571  -45.4433  -58.6561 H         1 UNK         0.0848 
     91 H91        24.7699  -48.4183  -57.9481 H         1 UNK         0.3144 
     92 H92        26.1366  -49.1426  -60.0359 H         1 UNK         0.0727 
     93 H93        28.5917  -49.0259  -60.5416 H         1 UNK         0.0790 
     94 H94        28.6500  -47.4082  -59.8417 H         1 UNK         0.0790 
     95 H95        27.6856  -47.7128  -61.2758 H         1 UNK         0.0790 
     96 H96        28.0980  -48.8737  -57.8477 H         1 UNK         0.3215 
     97 H97        26.2174  -50.8573  -55.5935 H         1 UNK         0.0863 
     98 H98        28.0950  -52.4824  -55.6129 H         1 UNK         0.0808 
     99 H99        28.6358  -51.8830  -57.1804 H         1 UNK         0.0808 
    100 H100       27.0916  -52.7127  -57.0356 H         1 UNK         0.0808 
    101 H101       28.9221  -50.1259  -55.4060 H         1 UNK         0.3118 
    102 H102       28.6618  -46.6508  -54.8903 H         1 UNK         0.0546 
    103 H103       28.1176  -47.4047  -52.6180 H         1 UNK         0.0828 
    104 H104       29.8651  -47.2523  -52.7436 H         1 UNK         0.0828 
    105 H105       29.1106  -48.8430  -52.7998 H         1 UNK         0.0828 
    106 H106       30.9272  -48.2600  -54.6396 H         1 UNK         0.3005 
    107 H107       31.6708  -48.7314  -58.1176 H         1 UNK         0.1257 
    108 H108       33.8520  -47.7463  -57.0250 H         1 UNK         0.0775 
    109 H109       32.7744  -46.7508  -56.0812 H         1 UNK         0.0775 
    110 H110       34.5350  -44.9786  -57.5633 H         1 UNK         0.0840 
    111 H111       33.6313  -44.0361  -58.7233 H         1 UNK         0.0840 
    112 H112       32.6133  -49.4858  -55.4196 H         1 UNK         0.2987 
    113 H113       31.5830  -52.8362  -55.8846 H         1 UNK         0.0785 
    114 H114       34.4865  -51.8619  -56.0946 H         1 UNK         0.0798 
    115 H115       33.6819  -52.9244  -57.2411 H         1 UNK         0.0798 
    116 H116       33.9679  -53.4744  -55.5992 H         1 UNK         0.0798 
    117 H117       33.2834  -51.6346  -53.9295 H         1 UNK         0.3079 
    118 H118       30.7606  -50.2025  -51.8950 H         1 UNK         0.0794 
    119 H119       32.4479  -52.7216  -51.4519 H         1 UNK         0.0786 
    120 H120       30.6963  -52.6383  -51.3243 H         1 UNK         0.0786 
    121 H121       31.6940  -51.7341  -50.1993 H         1 UNK         0.0786 
    122 H122       33.4617  -50.3854  -51.3203 H         1 UNK         0.3032 
    123 H123       34.7869  -48.6240  -51.3859 H         1 UNK         0.1094 
    124 H124       35.1286  -47.9826  -54.3800 H         1 UNK         0.0794 
    125 H125       36.3976  -47.8820  -53.1612 H         1 UNK         0.0794 
    126 H126       35.7068  -49.4410  -53.5827 H         1 UNK         0.0794 
    127 H127       33.2455  -46.4832  -52.6370 H         1 UNK         0.3016 
@<TRIPOS>BOND
     1    1    2 1    
     2    1   67 1    
     3    1   68 1    
     4    1   69 1    
     5    2    3 2    
     6    2    4 am   BACKBONE|DICT|INTERRES
     7    4    5 1    
     8    4   70 1    
     9    5    6 1    
    10    5   65 1    
    11    5   71 1    
    12    6    7 1    
    13    6   72 1    
    14    6   73 1    
    15    7    8 1    
    16    8    9 1    
    17    8   74 1    
    18    8   75 1    
    19    9   10 ar   
    20    9   14 ar   
    21   10   11 ar   
    22   10   76 1    
    23   11   12 ar   
    24   11   48 1    
    25   12   13 ar   
    26   12   77 1    
    27   13   14 ar   
    28   13   15 1    
    29   14   78 1    
    30   15   16 1    
    31   15   79 1    
    32   15   80 1    
    33   16   17 1    
    34   17   18 1    
    35   17   81 1    
    36   17   82 1    
    37   18   19 1    
    38   18   22 1    
    39   18   83 1    
    40   19   20 am   BACKBONE|DICT|INTERRES
    41   19   21 2    
    42   20   84 1    
    43   20   85 1    
    44   22   23 am   BACKBONE|DICT|INTERRES
    45   22   86 1    
    46   23   24 2    
    47   23   25 1    
    48   25   26 1    
    49   25   27 1    
    50   25   87 1    
    51   26   88 1    
    52   26   89 1    
    53   26   90 1    
    54   27   28 am   BACKBONE|DICT|INTERRES
    55   27   91 1    
    56   28   29 2    
    57   28   30 1    
    58   30   31 1    
    59   30   32 1    
    60   30   92 1    
    61   31   93 1    
    62   31   94 1    
    63   31   95 1    
    64   32   33 am   BACKBONE|DICT|INTERRES
    65   32   96 1    
    66   33   34 2    
    67   33   35 1    
    68   35   36 1    
    69   35   37 1    
    70   35   97 1    
    71   36   98 1    
    72   36   99 1    
    73   36  100 1    
    74   37   38 am   BACKBONE|DICT|INTERRES
    75   37  101 1    
    76   38   39 2    
    77   38   40 1    
    78   40   41 1    
    79   40   42 1    
    80   40  102 1    
    81   41  103 1    
    82   41  104 1    
    83   41  105 1    
    84   42   43 am   BACKBONE|DICT|INTERRES
    85   42  106 1    
    86   43   44 2    
    87   43   45 1    
    88   45   46 1    
    89   45   49 1    
    90   45  107 1    
    91   46   47 1    
    92   46  108 1    
    93   46  109 1    
    94   47   48 1    
    95   48  110 1    
    96   48  111 1    
    97   49   50 am   BACKBONE|DICT|INTERRES
    98   49  112 1    
    99   50   51 2    
   100   50   52 1    
   101   52   53 1    
   102   52   54 1    
   103   52  113 1    
   104   53  114 1    
   105   53  115 1    
   106   53  116 1    
   107   54   55 am   BACKBONE|DICT|INTERRES
   108   54  117 1    
   109   55   56 2    
   110   55   57 1    
   111   57   58 1    
   112   57   59 1    
   113   57  118 1    
   114   58  119 1    
   115   58  120 1    
   116   58  121 1    
   117   59   60 am   BACKBONE|DICT|INTERRES
   118   59  122 1    
   119   60   61 2    
   120   60   62 1    
   121   62   63 1    
   122   62   64 1    
   123   62  123 1    
   124   63  124 1    
   125   63  125 1    
   126   63  126 1    
   127   64   65 am   BACKBONE|DICT|INTERRES
   128   64  127 1    
   129   65   66 2    
@<TRIPOS>SUBSTRUCTURE
     1 UNK         1 GROUP             0       ****    0 ROOT    
