@<TRIPOS>MOLECULE
3R134
127   129    1
SMALL
USER_CHARGES


@<TRIPOS>ATOM
      1 CA         33.8178  -46.5953  -57.4785 C.3       0 UNK        -0.1968 
      2 C          33.7412  -46.3634  -55.9780 C.2       0 UNK         0.4852 
      3 O          33.5383  -47.3191  -55.2276 O.2       0 UNK        -0.5359 
      4 N          33.9077  -45.1123  -55.5280 N.am      1 UNK        -0.4300 
      5 CA         33.8312  -44.7081  -54.1200 C.3       1 UNK         0.0863 
      6 C6         34.0185  -43.1841  -53.9241 C.3       11 UNK        -0.0953 
      7 S7         32.7644  -42.1903  -54.7975 S.3       11 UNK        -0.2369 
      8 C8         31.5656  -41.8592  -53.4671 C.3       11 UNK         0.0226 
      9 C9         30.6630  -43.0582  -53.2183 C.ar      11 UNK        -0.0699 
     10 C10        30.9467  -43.9678  -52.1938 C.ar      11 UNK        -0.0804 
     11 C11        30.1249  -45.0812  -51.9864 C.ar      11 UNK        -0.0871 
     12 C12        28.9895  -45.2523  -52.7826 C.ar      11 UNK        -0.1008 
     13 C13        28.7044  -44.3578  -53.8164 C.ar      11 UNK        -0.0735 
     14 C14        29.5426  -43.2607  -54.0284 C.ar      11 UNK        -0.0945 
     15 C15        27.5038  -44.5927  -54.7189 C.3       11 UNK         0.0169 
     16 S16        27.6558  -46.1392  -55.6658 S.3       11 UNK        -0.2669 
     17 C17        29.1649  -45.8540  -56.6624 C.3       11 UNK        -0.0850 
     18 CA         28.9227  -44.9865  -57.9323 C.3       10 UNK         0.0855 
     19 C          30.2261  -44.7620  -58.7548 C.2       10 UNK         0.5543 
     20 N          30.1787  -44.7558  -60.0811 N.am      10 UNK        -0.7343 
     21 O          31.2918  -44.5493  -58.1834 O.2       10 UNK        -0.5027 
     22 N          27.7486  -45.4208  -58.7092 N.am      10 UNK        -0.4495 
     23 C          27.5542  -46.6211  -59.2682 C.2       10 UNK         0.4903 
     24 O          28.4171  -47.4952  -59.3538 O.2       10 UNK        -0.4860 
     25 CA         26.1215  -46.8900  -59.7641 C.3       9 UNK         0.0227 
     26 CB         25.9561  -48.2789  -60.4084 C.3       9 UNK        -0.1964 
     27 N          25.1695  -46.7592  -58.6555 N.am      9 UNK        -0.4231 
     28 C          24.6301  -45.5998  -58.2443 C.2       9 UNK         0.5014 
     29 O          24.8715  -44.5213  -58.7896 O.2       9 UNK        -0.5270 
     30 CA         23.6947  -45.6078  -57.0238 C.3       8 UNK         0.0284 
     31 CB         22.2307  -45.4252  -57.4591 C.3       8 UNK        -0.1977 
     32 N          23.8120  -46.8323  -56.2342 N.am      8 UNK        -0.4342 
     33 C          23.9560  -46.9043  -54.9088 C.2       8 UNK         0.5039 
     34 O          23.9788  -45.9268  -54.1598 O.2       8 UNK        -0.5547 
     35 CA         24.0750  -48.3176  -54.3114 C.3       7 UNK         0.0281 
     36 CB         22.8018  -49.1494  -54.5686 C.3       7 UNK        -0.1963 
     37 N          25.2783  -49.0552  -54.7196 N.am      7 UNK        -0.4444 
     38 C          25.6768  -49.4381  -55.9403 C.2       7 UNK         0.5104 
     39 O          25.0688  -49.1677  -56.9806 O.2       7 UNK        -0.5100 
     40 CA         26.9699  -50.2790  -55.9955 C.3       6 UNK         0.0396 
     41 CB         27.3664  -50.6645  -57.4316 C.3       6 UNK        -0.1801 
     42 N          28.1197  -49.6291  -55.3618 N.am      6 UNK        -0.4747 
     43 C          28.3480  -49.4805  -54.0509 C.2       6 UNK         0.5012 
     44 O          27.5515  -49.8563  -53.1879 O.2       6 UNK        -0.5003 
     45 CA         29.6968  -48.8345  -53.6450 C.3       5 UNK         0.0782 
     46 C46        29.7867  -48.5939  -52.1135 C.3       11 UNK        -0.0868 
     47 S47        31.2386  -47.5966  -51.6287 S.3       11 UNK        -0.2515 
     48 C48        30.4691  -46.1039  -50.9134 C.3       11 UNK         0.0199 
     49 N          30.8307  -49.6389  -54.1217 N.am      5 UNK        -0.4607 
     50 C          31.2438  -49.7484  -55.3904 C.2       4 UNK         0.5031 
     51 O          30.7376  -49.1324  -56.3294 O.2       4 UNK        -0.5119 
     52 CA         32.4321  -50.6854  -55.6324 C.3       4 UNK         0.0263 
     53 CB         32.6490  -51.0103  -57.1240 C.3       4 UNK        -0.1967 
     54 N          33.6194  -50.0436  -55.0860 N.am      4 UNK        -0.4237 
     55 C          34.7062  -50.6671  -54.6190 C.2       3 UNK         0.4908 
     56 O          34.8283  -51.8919  -54.5767 O.2       3 UNK        -0.5102 
     57 CA         35.8482  -49.7803  -54.1039 C.3       3 UNK         0.0241 
     58 CB         36.6896  -49.2454  -55.2752 C.3       3 UNK        -0.1971 
     59 N          35.3348  -48.6545  -53.3193 N.am      3 UNK        -0.4139 
     60 C          35.6703  -48.3822  -52.0506 C.2       2 UNK         0.5016 
     61 O          36.4723  -49.0562  -51.4011 O.2       2 UNK        -0.5319 
     62 CA         34.9888  -47.1746  -51.3702 C.3       2 UNK         0.0286 
     63 CB         35.9507  -46.3961  -50.4469 C.3       2 UNK        -0.1963 
     64 N          34.2915  -46.2681  -52.2932 N.am      2 UNK        -0.4790 
     65 C          34.8306  -45.4880  -53.2420 C.2       1 UNK         0.5024 
     66 O          36.0395  -45.3858  -53.4588 O.2       1 UNK        -0.4888 
     67 H67        34.6397  -47.2701  -57.7149 H         1 UNK         0.0892 
     68 H68        32.8907  -47.0486  -57.8295 H         1 UNK         0.0892 
     69 H69        33.9676  -45.6654  -58.0267 H         1 UNK         0.0892 
     70 H70        34.0640  -44.3626  -56.1861 H         1 UNK         0.3107 
     71 H71        32.8243  -44.9722  -53.7965 H         1 UNK         0.0773 
     72 H72        33.9973  -42.9260  -52.8636 H         1 UNK         0.0680 
     73 H73        35.0005  -42.8738  -54.2864 H         1 UNK         0.0680 
     74 H74        30.9565  -41.0008  -53.7542 H         1 UNK         0.0650 
     75 H75        32.0862  -41.5663  -52.5541 H         1 UNK         0.0650 
     76 H76        31.8202  -43.8195  -51.5737 H         1 UNK         0.1397 
     77 H77        28.3369  -46.0985  -52.6251 H         1 UNK         0.1363 
     78 H78        29.3317  -42.5673  -54.8311 H         1 UNK         0.1355 
     79 H79        26.6010  -44.6422  -54.1083 H         1 UNK         0.0707 
     80 H80        27.3614  -43.7621  -55.4116 H         1 UNK         0.0707 
     81 H81        29.5567  -46.8297  -56.9534 H         1 UNK         0.1034 
     82 H82        29.9361  -45.4096  -56.0310 H         1 UNK         0.1034 
     83 H83        28.6593  -43.9889  -57.5803 H         1 UNK         0.0482 
     84 H84        29.3081  -44.9275  -60.5576 H         1 UNK         0.3460 
     85 H85        31.0233  -44.5952  -60.6063 H         1 UNK         0.3460 
     86 H86        26.9603  -44.7837  -58.7049 H         1 UNK         0.2989 
     87 H87        25.8968  -46.1454  -60.5306 H         1 UNK         0.0559 
     88 H88        26.1304  -49.0821  -59.6931 H         1 UNK         0.0848 
     89 H89        26.6577  -48.4154  -61.2323 H         1 UNK         0.0848 
     90 H90        24.9528  -48.4082  -60.8143 H         1 UNK         0.0848 
     91 H91        25.0217  -47.6032  -58.1116 H         1 UNK         0.3144 
     92 H92        23.9828  -44.7495  -56.4130 H         1 UNK         0.0727 
     93 H93        21.5689  -45.3489  -56.5962 H         1 UNK         0.0790 
     94 H94        21.8863  -46.2579  -58.0736 H         1 UNK         0.0790 
     95 H95        22.1064  -44.5126  -58.0438 H         1 UNK         0.0790 
     96 H96        23.8804  -47.7120  -56.7368 H         1 UNK         0.3215 
     97 H97        24.1629  -48.1888  -53.2312 H         1 UNK         0.0863 
     98 H98        22.6642  -49.3818  -55.6249 H         1 UNK         0.0808 
     99 H99        21.9122  -48.6129  -54.2356 H         1 UNK         0.0808 
    100 H100       22.8320  -50.0927  -54.0232 H         1 UNK         0.0808 
    101 H101       25.9074  -49.3085  -53.9609 H         1 UNK         0.3118 
    102 H102       26.7628  -51.2041  -55.4540 H         1 UNK         0.0546 
    103 H103       28.2108  -51.3537  -57.4372 H         1 UNK         0.0828 
    104 H104       27.6505  -49.7882  -58.0146 H         1 UNK         0.0828 
    105 H105       26.5446  -51.1576  -57.9525 H         1 UNK         0.0828 
    106 H106       28.8504  -49.3013  -55.9888 H         1 UNK         0.3005 
    107 H107       29.7392  -47.8612  -54.1401 H         1 UNK         0.1257 
    108 H108       29.8414  -49.5469  -51.5839 H         1 UNK         0.0775 
    109 H109       28.8832  -48.1094  -51.7419 H         1 UNK         0.0775 
    110 H110       29.5784  -46.3696  -50.3421 H         1 UNK         0.0840 
    111 H111       31.1645  -45.6700  -50.1931 H         1 UNK         0.0840 
    112 H112       31.3184  -50.1657  -53.4121 H         1 UNK         0.2987 
    113 H113       32.2345  -51.6164  -55.0968 H         1 UNK         0.0785 
    114 H114       33.4634  -51.7216  -57.2612 H         1 UNK         0.0798 
    115 H115       31.7532  -51.4535  -57.5608 H         1 UNK         0.0798 
    116 H116       32.8864  -50.1147  -57.6997 H         1 UNK         0.0798 
    117 H117       33.5899  -49.0214  -55.0983 H         1 UNK         0.3079 
    118 H118       36.4909  -50.4130  -53.4882 H         1 UNK         0.0794 
    119 H119       37.5413  -48.6675  -54.9158 H         1 UNK         0.0786 
    120 H120       36.1056  -48.6024  -55.9344 H         1 UNK         0.0786 
    121 H121       37.0836  -50.0636  -55.8796 H         1 UNK         0.0786 
    122 H122       34.6645  -48.0480  -53.7825 H         1 UNK         0.3032 
    123 H123       34.2130  -47.6055  -50.7351 H         1 UNK         0.1094 
    124 H124       36.8116  -46.0069  -50.9908 H         1 UNK         0.0794 
    125 H125       35.4479  -45.5567  -49.9665 H         1 UNK         0.0794 
    126 H126       36.3351  -47.0370  -49.6525 H         1 UNK         0.0794 
    127 H127       33.2810  -46.3172  -52.2421 H         1 UNK         0.3016 
@<TRIPOS>BOND
     1    1    2 1    
     2    1   67 1    
     3    1   68 1    
     4    1   69 1    
     5    2    3 2    
     6    2    4 am   BACKBONE|DICT|INTERRES
     7    4    5 1    
     8    4   70 1    
     9    5    6 1    
    10    5   65 1    
    11    5   71 1    
    12    6    7 1    
    13    6   72 1    
    14    6   73 1    
    15    7    8 1    
    16    8    9 1    
    17    8   74 1    
    18    8   75 1    
    19    9   10 ar   
    20    9   14 ar   
    21   10   11 ar   
    22   10   76 1    
    23   11   12 ar   
    24   11   48 1    
    25   12   13 ar   
    26   12   77 1    
    27   13   14 ar   
    28   13   15 1    
    29   14   78 1    
    30   15   16 1    
    31   15   79 1    
    32   15   80 1    
    33   16   17 1    
    34   17   18 1    
    35   17   81 1    
    36   17   82 1    
    37   18   19 1    
    38   18   22 1    
    39   18   83 1    
    40   19   20 am   BACKBONE|DICT|INTERRES
    41   19   21 2    
    42   20   84 1    
    43   20   85 1    
    44   22   23 am   BACKBONE|DICT|INTERRES
    45   22   86 1    
    46   23   24 2    
    47   23   25 1    
    48   25   26 1    
    49   25   27 1    
    50   25   87 1    
    51   26   88 1    
    52   26   89 1    
    53   26   90 1    
    54   27   28 am   BACKBONE|DICT|INTERRES
    55   27   91 1    
    56   28   29 2    
    57   28   30 1    
    58   30   31 1    
    59   30   32 1    
    60   30   92 1    
    61   31   93 1    
    62   31   94 1    
    63   31   95 1    
    64   32   33 am   BACKBONE|DICT|INTERRES
    65   32   96 1    
    66   33   34 2    
    67   33   35 1    
    68   35   36 1    
    69   35   37 1    
    70   35   97 1    
    71   36   98 1    
    72   36   99 1    
    73   36  100 1    
    74   37   38 am   BACKBONE|DICT|INTERRES
    75   37  101 1    
    76   38   39 2    
    77   38   40 1    
    78   40   41 1    
    79   40   42 1    
    80   40  102 1    
    81   41  103 1    
    82   41  104 1    
    83   41  105 1    
    84   42   43 am   BACKBONE|DICT|INTERRES
    85   42  106 1    
    86   43   44 2    
    87   43   45 1    
    88   45   46 1    
    89   45   49 1    
    90   45  107 1    
    91   46   47 1    
    92   46  108 1    
    93   46  109 1    
    94   47   48 1    
    95   48  110 1    
    96   48  111 1    
    97   49   50 am   BACKBONE|DICT|INTERRES
    98   49  112 1    
    99   50   51 2    
   100   50   52 1    
   101   52   53 1    
   102   52   54 1    
   103   52  113 1    
   104   53  114 1    
   105   53  115 1    
   106   53  116 1    
   107   54   55 am   BACKBONE|DICT|INTERRES
   108   54  117 1    
   109   55   56 2    
   110   55   57 1    
   111   57   58 1    
   112   57   59 1    
   113   57  118 1    
   114   58  119 1    
   115   58  120 1    
   116   58  121 1    
   117   59   60 am   BACKBONE|DICT|INTERRES
   118   59  122 1    
   119   60   61 2    
   120   60   62 1    
   121   62   63 1    
   122   62   64 1    
   123   62  123 1    
   124   63  124 1    
   125   63  125 1    
   126   63  126 1    
   127   64   65 am   BACKBONE|DICT|INTERRES
   128   64  127 1    
   129   65   66 2    
@<TRIPOS>SUBSTRUCTURE
     1 UNK         1 GROUP             0       ****    0 ROOT    
