@<TRIPOS>MOLECULE
3R134
127   129    1
SMALL
USER_CHARGES


@<TRIPOS>ATOM
      1 CA         32.1014  -48.8518  -57.3120 C.3       0 UNK        -0.1968 
      2 C          33.1820  -48.0443  -56.6099 C.2       0 UNK         0.4852 
      3 O          34.3375  -48.0683  -57.0362 O.2       0 UNK        -0.5359 
      4 N          32.8154  -47.3476  -55.5262 N.am      1 UNK        -0.4300 
      5 CA         33.6638  -46.5184  -54.6620 C.3       1 UNK         0.0863 
      6 C6         34.4547  -45.4143  -55.4192 C.3       11 UNK        -0.0953 
      7 S7         34.9514  -44.0432  -54.3217 S.3       11 UNK        -0.2369 
      8 C8         33.8986  -42.6793  -54.9094 C.3       11 UNK         0.0226 
      9 C9         32.4194  -42.9684  -54.7018 C.ar      11 UNK        -0.0699 
     10 C10        31.8555  -42.8766  -53.4266 C.ar      11 UNK        -0.0804 
     11 C11        30.4961  -43.1388  -53.2314 C.ar      11 UNK        -0.0871 
     12 C12        29.6991  -43.4928  -54.3254 C.ar      11 UNK        -0.1008 
     13 C13        30.2554  -43.5973  -55.6036 C.ar      11 UNK        -0.0735 
     14 C14        31.6136  -43.3255  -55.7861 C.ar      11 UNK        -0.0945 
     15 C15        29.4066  -44.0277  -56.7893 C.3       11 UNK         0.0169 
     16 S16        28.5377  -42.6237  -57.5492 S.3       11 UNK        -0.2669 
     17 C17        26.9947  -42.5697  -56.5693 C.3       11 UNK        -0.0850 
     18 CA         25.7103  -42.7096  -57.4284 C.3       10 UNK         0.0855 
     19 C          25.3892  -41.4074  -58.2221 C.2       10 UNK         0.5543 
     20 N          25.3272  -41.4323  -59.5482 N.am      10 UNK        -0.7343 
     21 O          25.1766  -40.3582  -57.6190 O.2       10 UNK        -0.5027 
     22 N          25.7153  -43.9468  -58.2302 N.am      10 UNK        -0.4495 
     23 C          24.6143  -44.5597  -58.6837 C.2       10 UNK         0.4903 
     24 O          23.4703  -44.1845  -58.4245 O.2       10 UNK        -0.4860 
     25 CA         24.7985  -45.7846  -59.5999 C.3       9 UNK         0.0227 
     26 CB         24.5921  -45.3813  -61.0698 C.3       9 UNK        -0.1964 
     27 N          26.0833  -46.4834  -59.4729 N.am      9 UNK        -0.4231 
     28 C          26.4792  -47.1757  -58.3964 C.2       9 UNK         0.5014 
     29 O          25.8504  -47.2158  -57.3363 O.2       9 UNK        -0.5270 
     30 CA         27.7750  -47.9876  -58.5524 C.3       8 UNK         0.0284 
     31 CB         29.0215  -47.0982  -58.6966 C.3       8 UNK        -0.1977 
     32 N          27.9398  -48.8519  -57.3888 N.am      8 UNK        -0.4342 
     33 C          28.3246  -50.1331  -57.4031 C.2       8 UNK         0.5039 
     34 O          28.6712  -50.7262  -58.4256 O.2       8 UNK        -0.5547 
     35 CA         28.3295  -50.8934  -56.0602 C.3       7 UNK         0.0281 
     36 CB         29.7382  -51.4042  -55.7113 C.3       7 UNK        -0.1963 
     37 N          27.8163  -50.0978  -54.9402 N.am      7 UNK        -0.4444 
     38 C          26.5162  -49.8862  -54.6887 C.2       7 UNK         0.5104 
     39 O          25.6087  -50.3929  -55.3484 O.2       7 UNK        -0.5100 
     40 CA         26.1547  -48.9596  -53.5112 C.3       6 UNK         0.0396 
     41 CB         25.4701  -49.7598  -52.3905 C.3       6 UNK        -0.1801 
     42 N          27.2939  -48.2342  -52.9407 N.am      6 UNK        -0.4747 
     43 C          27.9324  -47.2011  -53.5119 C.2       6 UNK         0.5012 
     44 O          27.6507  -46.7465  -54.6192 O.2       6 UNK        -0.5003 
     45 CA         29.1180  -46.6124  -52.7197 C.3       5 UNK         0.0782 
     46 C46        28.6140  -45.5467  -51.7177 C.3       11 UNK        -0.0868 
     47 S47        29.9803  -44.6193  -50.9451 S.3       11 UNK        -0.2515 
     48 C48        29.8958  -43.0331  -51.8372 C.3       11 UNK         0.0199 
     49 N          29.8974  -47.6713  -52.0643 N.am      5 UNK        -0.4607 
     50 C          30.6001  -48.5925  -52.7314 C.2       4 UNK         0.5031 
     51 O          30.7505  -48.5766  -53.9571 O.2       4 UNK        -0.5119 
     52 CA         31.1607  -49.7597  -51.9132 C.3       4 UNK         0.0263 
     53 CB         30.0188  -50.7316  -51.5433 C.3       4 UNK        -0.1967 
     54 N          32.1700  -50.4235  -52.7321 N.am      4 UNK        -0.4237 
     55 C          32.9646  -51.4414  -52.3822 C.2       3 UNK         0.4908 
     56 O          32.9496  -51.9911  -51.2805 O.2       3 UNK        -0.5102 
     57 CA         33.9707  -51.9014  -53.4487 C.3       3 UNK         0.0241 
     58 CB         33.2602  -52.5275  -54.6618 C.3       3 UNK        -0.1971 
     59 N          34.8131  -50.7883  -53.8875 N.am      3 UNK        -0.4139 
     60 C          35.8100  -50.2615  -53.1622 C.2       2 UNK         0.5016 
     61 O          36.2037  -50.7222  -52.0901 O.2       2 UNK        -0.5319 
     62 CA         36.4707  -48.9935  -53.7253 C.3       2 UNK         0.0286 
     63 CB         37.5991  -49.3549  -54.7044 C.3       2 UNK        -0.1963 
     64 N          35.5136  -48.1067  -54.3913 N.am      2 UNK        -0.4790 
     65 C          34.5696  -47.3874  -53.7682 C.2       1 UNK         0.5024 
     66 O          34.3881  -47.4048  -52.5505 O.2       1 UNK        -0.4888 
     67 H67        32.0894  -48.6153  -58.3754 H         1 UNK         0.0892 
     68 H68        32.2962  -49.9182  -57.2041 H         1 UNK         0.0892 
     69 H69        31.1114  -48.6400  -56.9084 H         1 UNK         0.0892 
     70 H70        31.8734  -47.4847  -55.1710 H         1 UNK         0.3107 
     71 H71        32.9575  -46.0170  -53.9969 H         1 UNK         0.0773 
     72 H72        35.3490  -45.8143  -55.8995 H         1 UNK         0.0680 
     73 H73        33.8496  -45.0146  -56.2328 H         1 UNK         0.0680 
     74 H74        34.1138  -42.4863  -55.9616 H         1 UNK         0.0650 
     75 H75        34.1682  -41.7695  -54.3713 H         1 UNK         0.0650 
     76 H76        32.4790  -42.6066  -52.5850 H         1 UNK         0.1397 
     77 H77        28.6489  -43.7009  -54.1808 H         1 UNK         0.1363 
     78 H78        32.0456  -43.3999  -56.7747 H         1 UNK         0.1355 
     79 H79        28.6964  -44.7995  -56.4885 H         1 UNK         0.0707 
     80 H80        30.0460  -44.4786  -57.5491 H         1 UNK         0.0707 
     81 H81        27.0017  -43.3670  -55.8258 H         1 UNK         0.1034 
     82 H82        26.9802  -41.6429  -55.9924 H         1 UNK         0.1034 
     83 H83        24.8871  -42.8043  -56.7173 H         1 UNK         0.0482 
     84 H84        25.5035  -42.2871  -60.0497 H         1 UNK         0.3460 
     85 H85        25.1126  -40.5849  -60.0497 H         1 UNK         0.3460 
     86 H86        26.6219  -44.2998  -58.4974 H         1 UNK         0.2989 
     87 H87        24.0139  -46.4969  -59.3356 H         1 UNK         0.0559 
     88 H88        23.6327  -44.8800  -61.2078 H         1 UNK         0.0848 
     89 H89        24.5936  -46.2521  -61.7257 H         1 UNK         0.0848 
     90 H90        25.3684  -44.6978  -61.4158 H         1 UNK         0.0848 
     91 H91        26.6635  -46.5074  -60.2996 H         1 UNK         0.3144 
     92 H92        27.6607  -48.5918  -59.4551 H         1 UNK         0.0727 
     93 H93        29.3229  -46.6849  -57.7359 H         1 UNK         0.0790 
     94 H94        28.8628  -46.2686  -59.3864 H         1 UNK         0.0790 
     95 H95        29.8621  -47.6758  -59.0802 H         1 UNK         0.0790 
     96 H96        27.5886  -48.4533  -56.5254 H         1 UNK         0.3215 
     97 H97        27.6842  -51.7648  -56.1912 H         1 UNK         0.0863 
     98 H98        30.4392  -50.5853  -55.5634 H         1 UNK         0.0808 
     99 H99        30.1365  -52.0323  -56.5092 H         1 UNK         0.0808 
    100 H100       29.7298  -52.0071  -54.8033 H         1 UNK         0.0808 
    101 H101       28.5005  -49.6169  -54.3734 H         1 UNK         0.3118 
    102 H102       25.4415  -48.2244  -53.8903 H         1 UNK         0.0546 
    103 H103       26.1361  -50.5122  -51.9660 H         1 UNK         0.0828 
    104 H104       24.5875  -50.2812  -52.7640 H         1 UNK         0.0828 
    105 H105       25.1379  -49.1085  -51.5820 H         1 UNK         0.0828 
    106 H106       27.6070  -48.5393  -52.0306 H         1 UNK         0.3005 
    107 H107       29.7708  -46.1250  -53.4472 H         1 UNK         0.1257 
    108 H108       28.0314  -46.0150  -50.9221 H         1 UNK         0.0775 
    109 H109       27.9350  -44.8432  -52.2027 H         1 UNK         0.0775 
    110 H110       28.8638  -42.6825  -51.8876 H         1 UNK         0.0840 
    111 H111       30.4367  -42.2812  -51.2603 H         1 UNK         0.0840 
    112 H112       29.8394  -47.7178  -51.0570 H         1 UNK         0.2987 
    113 H113       31.6369  -49.3691  -51.0118 H         1 UNK         0.0785 
    114 H114       29.2401  -50.2295  -50.9684 H         1 UNK         0.0798 
    115 H115       30.3735  -51.5584  -50.9288 H         1 UNK         0.0798 
    116 H116       29.5475  -51.1565  -52.4302 H         1 UNK         0.0798 
    117 H117       32.2498  -50.0208  -53.6567 H         1 UNK         0.3079 
    118 H118       34.6080  -52.6668  -52.9998 H         1 UNK         0.0794 
    119 H119       33.9793  -52.9604  -55.3575 H         1 UNK         0.0786 
    120 H120       32.6644  -51.7993  -55.2119 H         1 UNK         0.0786 
    121 H121       32.5901  -53.3302  -54.3506 H         1 UNK         0.0786 
    122 H122       34.5811  -50.3455  -54.7638 H         1 UNK         0.3032 
    123 H123       36.9074  -48.4507  -52.8835 H         1 UNK         0.1094 
    124 H124       37.2213  -49.8775  -55.5842 H         1 UNK         0.0794 
    125 H125       38.1280  -48.4644  -55.0448 H         1 UNK         0.0794 
    126 H126       38.3349  -50.0051  -54.2288 H         1 UNK         0.0794 
    127 H127       35.5324  -48.0678  -55.4066 H         1 UNK         0.3016 
@<TRIPOS>BOND
     1    1    2 1    
     2    1   67 1    
     3    1   68 1    
     4    1   69 1    
     5    2    3 2    
     6    2    4 am   BACKBONE|DICT|INTERRES
     7    4    5 1    
     8    4   70 1    
     9    5    6 1    
    10    5   65 1    
    11    5   71 1    
    12    6    7 1    
    13    6   72 1    
    14    6   73 1    
    15    7    8 1    
    16    8    9 1    
    17    8   74 1    
    18    8   75 1    
    19    9   10 ar   
    20    9   14 ar   
    21   10   11 ar   
    22   10   76 1    
    23   11   12 ar   
    24   11   48 1    
    25   12   13 ar   
    26   12   77 1    
    27   13   14 ar   
    28   13   15 1    
    29   14   78 1    
    30   15   16 1    
    31   15   79 1    
    32   15   80 1    
    33   16   17 1    
    34   17   18 1    
    35   17   81 1    
    36   17   82 1    
    37   18   19 1    
    38   18   22 1    
    39   18   83 1    
    40   19   20 am   BACKBONE|DICT|INTERRES
    41   19   21 2    
    42   20   84 1    
    43   20   85 1    
    44   22   23 am   BACKBONE|DICT|INTERRES
    45   22   86 1    
    46   23   24 2    
    47   23   25 1    
    48   25   26 1    
    49   25   27 1    
    50   25   87 1    
    51   26   88 1    
    52   26   89 1    
    53   26   90 1    
    54   27   28 am   BACKBONE|DICT|INTERRES
    55   27   91 1    
    56   28   29 2    
    57   28   30 1    
    58   30   31 1    
    59   30   32 1    
    60   30   92 1    
    61   31   93 1    
    62   31   94 1    
    63   31   95 1    
    64   32   33 am   BACKBONE|DICT|INTERRES
    65   32   96 1    
    66   33   34 2    
    67   33   35 1    
    68   35   36 1    
    69   35   37 1    
    70   35   97 1    
    71   36   98 1    
    72   36   99 1    
    73   36  100 1    
    74   37   38 am   BACKBONE|DICT|INTERRES
    75   37  101 1    
    76   38   39 2    
    77   38   40 1    
    78   40   41 1    
    79   40   42 1    
    80   40  102 1    
    81   41  103 1    
    82   41  104 1    
    83   41  105 1    
    84   42   43 am   BACKBONE|DICT|INTERRES
    85   42  106 1    
    86   43   44 2    
    87   43   45 1    
    88   45   46 1    
    89   45   49 1    
    90   45  107 1    
    91   46   47 1    
    92   46  108 1    
    93   46  109 1    
    94   47   48 1    
    95   48  110 1    
    96   48  111 1    
    97   49   50 am   BACKBONE|DICT|INTERRES
    98   49  112 1    
    99   50   51 2    
   100   50   52 1    
   101   52   53 1    
   102   52   54 1    
   103   52  113 1    
   104   53  114 1    
   105   53  115 1    
   106   53  116 1    
   107   54   55 am   BACKBONE|DICT|INTERRES
   108   54  117 1    
   109   55   56 2    
   110   55   57 1    
   111   57   58 1    
   112   57   59 1    
   113   57  118 1    
   114   58  119 1    
   115   58  120 1    
   116   58  121 1    
   117   59   60 am   BACKBONE|DICT|INTERRES
   118   59  122 1    
   119   60   61 2    
   120   60   62 1    
   121   62   63 1    
   122   62   64 1    
   123   62  123 1    
   124   63  124 1    
   125   63  125 1    
   126   63  126 1    
   127   64   65 am   BACKBONE|DICT|INTERRES
   128   64  127 1    
   129   65   66 2    
@<TRIPOS>SUBSTRUCTURE
     1 UNK         1 GROUP             0       ****    0 ROOT    
