@<TRIPOS>MOLECULE
3R134
127   129    1
SMALL
USER_CHARGES


@<TRIPOS>ATOM
      1 CA         32.1398  -50.9388  -56.1173 C.3       0 UNK        -0.1968 
      2 C          32.5920  -49.6612  -55.4291 C.2       0 UNK         0.4852 
      3 O          32.6381  -49.6145  -54.1999 O.2       0 UNK        -0.5359 
      4 N          32.9476  -48.6276  -56.2034 N.am      1 UNK        -0.4300 
      5 CA         33.3882  -47.3064  -55.7264 C.3       1 UNK         0.0863 
      6 C6         33.6376  -46.3381  -56.9082 C.3       11 UNK        -0.0953 
      7 S7         32.1300  -45.9827  -57.8700 S.3       11 UNK        -0.2369 
      8 C8         31.7983  -44.2598  -57.3867 C.3       11 UNK         0.0226 
      9 C9         31.0372  -44.1743  -56.0717 C.ar      11 UNK        -0.0699 
     10 C10        31.7115  -44.1849  -54.8448 C.ar      11 UNK        -0.0804 
     11 C11        31.0010  -44.0791  -53.6437 C.ar      11 UNK        -0.0871 
     12 C12        29.6092  -43.9427  -53.6800 C.ar      11 UNK        -0.1008 
     13 C13        28.9269  -43.9367  -54.8981 C.ar      11 UNK        -0.0735 
     14 C14        29.6457  -44.0564  -56.0891 C.ar      11 UNK        -0.0945 
     15 C15        27.4154  -43.7927  -54.9328 C.3       11 UNK         0.0169 
     16 S16        26.6248  -45.4091  -55.1691 S.3       11 UNK        -0.2669 
     17 C17        24.8772  -44.9300  -55.3937 C.3       11 UNK        -0.0850 
     18 CA         24.3502  -45.2613  -56.8205 C.3       10 UNK         0.0855 
     19 C          22.8268  -44.9755  -56.9840 C.2       10 UNK         0.5543 
     20 N          22.3528  -44.5855  -58.1609 N.am      10 UNK        -0.7343 
     21 O          22.0554  -45.1391  -56.0414 O.2       10 UNK        -0.5027 
     22 N          25.2079  -44.7165  -57.8882 N.am      10 UNK        -0.4495 
     23 C          25.4582  -43.4193  -58.1184 C.2       10 UNK         0.4903 
     24 O          24.9078  -42.5005  -57.5105 O.2       10 UNK        -0.4860 
     25 CA         26.5198  -43.0830  -59.1809 C.3       9 UNK         0.0227 
     26 CB         27.3973  -41.8870  -58.7637 C.3       9 UNK        -0.1964 
     27 N          27.3843  -44.2326  -59.4641 N.am      9 UNK        -0.4231 
     28 C          27.5379  -44.8009  -60.6642 C.2       9 UNK         0.5014 
     29 O          26.9890  -44.3983  -61.6913 O.2       9 UNK        -0.5270 
     30 CA         28.4690  -46.0236  -60.7545 C.3       8 UNK         0.0284 
     31 CB         29.8717  -45.5806  -61.2045 C.3       8 UNK        -0.1977 
     32 N          28.6043  -46.8616  -59.5540 N.am      8 UNK        -0.4342 
     33 C          27.6220  -47.4319  -58.8408 C.2       8 UNK         0.5039 
     34 O          26.4345  -47.1185  -58.9311 O.2       8 UNK        -0.5547 
     35 CA         28.0212  -48.5856  -57.9055 C.3       7 UNK         0.0281 
     36 CB         29.5365  -48.8810  -57.8467 C.3       7 UNK        -0.1963 
     37 N          27.5164  -48.3730  -56.5504 N.am      7 UNK        -0.4444 
     38 C          27.1498  -49.3571  -55.7200 C.2       7 UNK         0.5104 
     39 O          27.0752  -50.5427  -56.0481 O.2       7 UNK        -0.5100 
     40 CA         26.9570  -48.9578  -54.2516 C.3       6 UNK         0.0396 
     41 CB         26.3499  -50.0775  -53.3846 C.3       6 UNK        -0.1801 
     42 N          28.2787  -48.6027  -53.7458 N.am      6 UNK        -0.4747 
     43 C          28.5589  -47.6877  -52.8108 C.2       6 UNK         0.5012 
     44 O          27.7052  -47.0565  -52.1854 O.2       6 UNK        -0.5003 
     45 CA         30.0660  -47.4817  -52.5372 C.3       5 UNK         0.0782 
     46 C46        30.3812  -46.4224  -51.4469 C.3       11 UNK        -0.0868 
     47 S47        32.0659  -45.7600  -51.6796 S.3       11 UNK        -0.2515 
     48 C48        31.7347  -44.0788  -52.3072 C.3       11 UNK         0.0199 
     49 N          30.7466  -48.7615  -52.2890 N.am      5 UNK        -0.4607 
     50 C          30.4551  -49.6470  -51.3239 C.2       4 UNK         0.5031 
     51 O          29.5592  -49.5036  -50.4915 O.2       4 UNK        -0.5119 
     52 CA         31.3169  -50.9169  -51.2762 C.3       4 UNK         0.0263 
     53 CB         30.8200  -51.9491  -52.3018 C.3       4 UNK        -0.1967 
     54 N          32.7417  -50.6501  -51.4896 N.am      4 UNK        -0.4237 
     55 C          33.5289  -50.0299  -50.6020 C.2       3 UNK         0.4908 
     56 O          33.1284  -49.5897  -49.5250 O.2       3 UNK        -0.5102 
     57 CA         35.0209  -49.9238  -50.9356 C.3       3 UNK         0.0241 
     58 CB         35.7240  -51.2676  -50.6516 C.3       3 UNK        -0.1971 
     59 N          35.2873  -49.4758  -52.3077 N.am      3 UNK        -0.4139 
     60 C          36.4681  -48.9615  -52.6886 C.2       2 UNK         0.5016 
     61 O          37.4086  -48.7749  -51.9142 O.2       2 UNK        -0.5319 
     62 CA         36.6774  -48.6145  -54.1737 C.3       2 UNK         0.0286 
     63 CB         37.5054  -49.7111  -54.8644 C.3       2 UNK        -0.1963 
     64 N          35.4417  -48.4141  -54.9282 N.am      2 UNK        -0.4790 
     65 C          34.6429  -47.3434  -54.8240 C.2       1 UNK         0.5024 
     66 O          34.8715  -46.3978  -54.0699 O.2       1 UNK        -0.4888 
     67 H67        31.1264  -51.1927  -55.8095 H         1 UNK         0.0892 
     68 H68        32.1533  -50.8449  -57.2029 H         1 UNK         0.0892 
     69 H69        32.7949  -51.7636  -55.8394 H         1 UNK         0.0892 
     70 H70        32.8942  -48.7207  -57.2077 H         1 UNK         0.3107 
     71 H71        32.5807  -46.9052  -55.1109 H         1 UNK         0.0773 
     72 H72        34.0638  -45.3962  -56.5584 H         1 UNK         0.0680 
     73 H73        34.3794  -46.7574  -57.5905 H         1 UNK         0.0680 
     74 H74        31.2169  -43.7888  -58.1808 H         1 UNK         0.0650 
     75 H75        32.7284  -43.6929  -57.3271 H         1 UNK         0.0650 
     76 H76        32.7889  -44.2736  -54.8214 H         1 UNK         0.1397 
     77 H77        29.0509  -43.8406  -52.7598 H         1 UNK         0.1363 
     78 H78        29.1206  -44.0500  -57.0323 H         1 UNK         0.1355 
     79 H79        27.0493  -43.3453  -54.0074 H         1 UNK         0.0707 
     80 H80        27.1296  -43.1154  -55.7371 H         1 UNK         0.0707 
     81 H81        24.7461  -43.8696  -55.1721 H         1 UNK         0.1034 
     82 H82        24.2948  -45.4647  -54.6413 H         1 UNK         0.1034 
     83 H83        24.4279  -46.3431  -56.9357 H         1 UNK         0.0482 
     84 H84        22.9772  -44.4580  -58.9411 H         1 UNK         0.3460 
     85 H85        21.3658  -44.4114  -58.2660 H         1 UNK         0.3460 
     86 H86        25.6768  -45.4236  -58.4492 H         1 UNK         0.2989 
     87 H87        25.9651  -42.7931  -60.0752 H         1 UNK         0.0559 
     88 H88        27.9317  -42.0775  -57.8333 H         1 UNK         0.0848 
     89 H89        26.7950  -40.9898  -58.6148 H         1 UNK         0.0848 
     90 H90        28.1353  -41.6519  -59.5308 H         1 UNK         0.0848 
     91 H91        27.8416  -44.6656  -58.6754 H         1 UNK         0.3144 
     92 H92        28.0556  -46.6681  -61.5328 H         1 UNK         0.0727 
     93 H93        30.5121  -46.4365  -61.4185 H         1 UNK         0.0790 
     94 H94        30.3652  -44.9738  -60.4442 H         1 UNK         0.0790 
     95 H95        29.8218  -44.9829  -62.1159 H         1 UNK         0.0790 
     96 H96        29.5442  -47.1739  -59.3557 H         1 UNK         0.3215 
     97 H97        27.5310  -49.4649  -58.3295 H         1 UNK         0.0863 
     98 H98        30.0892  -48.0676  -57.3764 H         1 UNK         0.0808 
     99 H99        29.9584  -49.0595  -58.8366 H         1 UNK         0.0808 
    100 H100       29.7254  -49.7827  -57.2663 H         1 UNK         0.0808 
    101 H101       27.4951  -47.4160  -56.2180 H         1 UNK         0.3118 
    102 H102       26.2908  -48.0950  -54.2174 H         1 UNK         0.0546 
    103 H103       26.2028  -49.7445  -52.3572 H         1 UNK         0.0828 
    104 H104       26.9881  -50.9617  -53.3598 H         1 UNK         0.0828 
    105 H105       25.3770  -50.3843  -53.7699 H         1 UNK         0.0828 
    106 H106       29.0495  -49.0773  -54.1957 H         1 UNK         0.3005 
    107 H107       30.4583  -47.1026  -53.4831 H         1 UNK         0.1257 
    108 H108       30.3037  -46.8524  -50.4474 H         1 UNK         0.0775 
    109 H109       29.6724  -45.5958  -51.4594 H         1 UNK         0.0775 
    110 H110       31.1666  -43.5216  -51.5607 H         1 UNK         0.0840 
    111 H111       32.6851  -43.5535  -52.4132 H         1 UNK         0.0840 
    112 H112       31.5021  -48.9978  -52.9303 H         1 UNK         0.2987 
    113 H113       31.2033  -51.3539  -50.2815 H         1 UNK         0.0785 
    114 H114       31.3727  -52.8850  -52.2225 H         1 UNK         0.0798 
    115 H115       29.7665  -52.1815  -52.1406 H         1 UNK         0.0798 
    116 H116       30.9193  -51.5863  -53.3245 H         1 UNK         0.0798 
    117 H117       33.1247  -50.9431  -52.3757 H         1 UNK         0.3079 
    118 H118       35.4313  -49.1766  -50.2524 H         1 UNK         0.0794 
    119 H119       36.8086  -51.1750  -50.7113 H         1 UNK         0.0786 
    120 H120       35.4160  -52.0403  -51.3565 H         1 UNK         0.0786 
    121 H121       35.4908  -51.6280  -49.6490 H         1 UNK         0.0786 
    122 H122       34.5305  -49.5299  -52.9796 H         1 UNK         0.3032 
    123 H123       37.2499  -47.6843  -54.2059 H         1 UNK         0.1094 
    124 H124       36.9804  -50.6673  -54.8761 H         1 UNK         0.0794 
    125 H125       37.7407  -49.4427  -55.8945 H         1 UNK         0.0794 
    126 H126       38.4544  -49.8675  -54.3490 H         1 UNK         0.0794 
    127 H127       35.1767  -49.1427  -55.5748 H         1 UNK         0.3016 
@<TRIPOS>BOND
     1    1    2 1    
     2    1   67 1    
     3    1   68 1    
     4    1   69 1    
     5    2    3 2    
     6    2    4 am   BACKBONE|DICT|INTERRES
     7    4    5 1    
     8    4   70 1    
     9    5    6 1    
    10    5   65 1    
    11    5   71 1    
    12    6    7 1    
    13    6   72 1    
    14    6   73 1    
    15    7    8 1    
    16    8    9 1    
    17    8   74 1    
    18    8   75 1    
    19    9   10 ar   
    20    9   14 ar   
    21   10   11 ar   
    22   10   76 1    
    23   11   12 ar   
    24   11   48 1    
    25   12   13 ar   
    26   12   77 1    
    27   13   14 ar   
    28   13   15 1    
    29   14   78 1    
    30   15   16 1    
    31   15   79 1    
    32   15   80 1    
    33   16   17 1    
    34   17   18 1    
    35   17   81 1    
    36   17   82 1    
    37   18   19 1    
    38   18   22 1    
    39   18   83 1    
    40   19   20 am   BACKBONE|DICT|INTERRES
    41   19   21 2    
    42   20   84 1    
    43   20   85 1    
    44   22   23 am   BACKBONE|DICT|INTERRES
    45   22   86 1    
    46   23   24 2    
    47   23   25 1    
    48   25   26 1    
    49   25   27 1    
    50   25   87 1    
    51   26   88 1    
    52   26   89 1    
    53   26   90 1    
    54   27   28 am   BACKBONE|DICT|INTERRES
    55   27   91 1    
    56   28   29 2    
    57   28   30 1    
    58   30   31 1    
    59   30   32 1    
    60   30   92 1    
    61   31   93 1    
    62   31   94 1    
    63   31   95 1    
    64   32   33 am   BACKBONE|DICT|INTERRES
    65   32   96 1    
    66   33   34 2    
    67   33   35 1    
    68   35   36 1    
    69   35   37 1    
    70   35   97 1    
    71   36   98 1    
    72   36   99 1    
    73   36  100 1    
    74   37   38 am   BACKBONE|DICT|INTERRES
    75   37  101 1    
    76   38   39 2    
    77   38   40 1    
    78   40   41 1    
    79   40   42 1    
    80   40  102 1    
    81   41  103 1    
    82   41  104 1    
    83   41  105 1    
    84   42   43 am   BACKBONE|DICT|INTERRES
    85   42  106 1    
    86   43   44 2    
    87   43   45 1    
    88   45   46 1    
    89   45   49 1    
    90   45  107 1    
    91   46   47 1    
    92   46  108 1    
    93   46  109 1    
    94   47   48 1    
    95   48  110 1    
    96   48  111 1    
    97   49   50 am   BACKBONE|DICT|INTERRES
    98   49  112 1    
    99   50   51 2    
   100   50   52 1    
   101   52   53 1    
   102   52   54 1    
   103   52  113 1    
   104   53  114 1    
   105   53  115 1    
   106   53  116 1    
   107   54   55 am   BACKBONE|DICT|INTERRES
   108   54  117 1    
   109   55   56 2    
   110   55   57 1    
   111   57   58 1    
   112   57   59 1    
   113   57  118 1    
   114   58  119 1    
   115   58  120 1    
   116   58  121 1    
   117   59   60 am   BACKBONE|DICT|INTERRES
   118   59  122 1    
   119   60   61 2    
   120   60   62 1    
   121   62   63 1    
   122   62   64 1    
   123   62  123 1    
   124   63  124 1    
   125   63  125 1    
   126   63  126 1    
   127   64   65 am   BACKBONE|DICT|INTERRES
   128   64  127 1    
   129   65   66 2    
@<TRIPOS>SUBSTRUCTURE
     1 UNK         1 GROUP             0       ****    0 ROOT    
