@<TRIPOS>MOLECULE
3R134
127   129    1
SMALL
USER_CHARGES


@<TRIPOS>ATOM
      1 CA         37.2856  -44.7766  -54.2546 C.3       0 UNK        -0.1968 
      2 C          37.2329  -43.7062  -53.1657 C.2       0 UNK         0.4852 
      3 O          38.2253  -43.0084  -52.9603 O.2       0 UNK        -0.5359 
      4 N          36.1098  -43.5239  -52.4565 N.am      1 UNK        -0.4300 
      5 CA         34.8760  -44.3161  -52.5293 C.3       1 UNK         0.0863 
      6 C6         33.6759  -43.5748  -51.8821 C.3       11 UNK        -0.0953 
      7 S7         33.3808  -41.9134  -52.5916 S.3       11 UNK        -0.2369 
      8 C8         31.5954  -41.9474  -52.9869 C.3       11 UNK         0.0226 
      9 C9         31.2676  -42.4097  -54.4070 C.ar      11 UNK        -0.0699 
     10 C10        31.9746  -43.4479  -55.0188 C.ar      11 UNK        -0.0804 
     11 C11        31.6484  -43.8890  -56.3033 C.ar      11 UNK        -0.0871 
     12 C12        30.5973  -43.2749  -56.9892 C.ar      11 UNK        -0.1008 
     13 C13        29.8706  -42.2409  -56.3919 C.ar      11 UNK        -0.0735 
     14 C14        30.2138  -41.8105  -55.1049 C.ar      11 UNK        -0.0945 
     15 C15        28.7110  -41.5907  -57.1362 C.3       11 UNK         0.0169 
     16 S16        27.2962  -42.7217  -57.3559 S.3       11 UNK        -0.2669 
     17 C17        26.9088  -43.1874  -55.6334 C.3       11 UNK        -0.0850 
     18 CA         27.1877  -44.6980  -55.3702 C.3       10 UNK         0.0855 
     19 C          27.3005  -45.0314  -53.8557 C.2       10 UNK         0.5543 
     20 N          28.2876  -44.4599  -53.1783 N.am      10 UNK        -0.7343 
     21 O          26.5333  -45.8064  -53.2882 O.2       10 UNK        -0.5027 
     22 N          26.2900  -45.6061  -56.1055 N.am      10 UNK        -0.4495 
     23 C          24.9496  -45.6433  -56.0611 C.2       10 UNK         0.4903 
     24 O          24.2598  -44.8496  -55.4191 O.2       10 UNK        -0.4860 
     25 CA         24.2447  -46.7768  -56.8375 C.3       9 UNK         0.0227 
     26 CB         22.8866  -46.3390  -57.4271 C.3       9 UNK        -0.1964 
     27 N          25.0819  -47.4290  -57.8527 N.am      9 UNK        -0.4231 
     28 C          25.5761  -46.9000  -58.9850 C.2       9 UNK         0.5014 
     29 O          25.3169  -45.7622  -59.3777 O.2       9 UNK        -0.5270 
     30 CA         26.5422  -47.7714  -59.8141 C.3       8 UNK         0.0284 
     31 CB         27.8326  -46.9981  -60.1447 C.3       8 UNK        -0.1977 
     32 N          26.9078  -49.0017  -59.1082 N.am      8 UNK        -0.4342 
     33 C          26.4087  -50.2214  -59.3520 C.2       8 UNK         0.5039 
     34 O          25.6335  -50.4721  -60.2751 O.2       8 UNK        -0.5547 
     35 CA         26.8191  -51.3538  -58.3883 C.3       7 UNK         0.0281 
     36 CB         27.9776  -52.1698  -58.9831 C.3       7 UNK        -0.1963 
     37 N          27.1984  -50.8791  -57.0526 N.am      7 UNK        -0.4444 
     38 C          26.3653  -50.2727  -56.1919 C.2       7 UNK         0.5104 
     39 O          25.1642  -50.1163  -56.4075 O.2       7 UNK        -0.5100 
     40 CA         26.9793  -49.6611  -54.9182 C.3       6 UNK         0.0396 
     41 CB         26.8130  -50.6195  -53.7304 C.3       6 UNK        -0.1801 
     42 N          28.3926  -49.2952  -55.0635 N.am      6 UNK        -0.4747 
     43 C          28.8683  -48.4155  -55.9610 C.2       6 UNK         0.5012 
     44 O          28.1427  -47.7832  -56.7302 O.2       6 UNK        -0.5003 
     45 CA         30.3961  -48.2390  -56.0723 C.3       5 UNK         0.0782 
     46 C46        30.8169  -46.8696  -55.4989 C.3       11 UNK        -0.0868 
     47 S47        32.5704  -46.4850  -55.8319 S.3       11 UNK        -0.2515 
     48 C48        32.4169  -45.0424  -56.9407 C.3       11 UNK         0.0199 
     49 N          31.1488  -49.3461  -55.4730 N.am      5 UNK        -0.4607 
     50 C          31.1548  -50.6050  -55.9369 C.2       4 UNK         0.5031 
     51 O          30.5277  -50.9598  -56.9354 O.2       4 UNK        -0.5119 
     52 CA         31.9539  -51.6561  -55.1431 C.3       4 UNK         0.0263 
     53 CB         33.3280  -51.8818  -55.7935 C.3       4 UNK        -0.1967 
     54 N          32.1419  -51.3200  -53.7286 N.am      4 UNK        -0.4237 
     55 C          31.1577  -51.1463  -52.8337 C.2       3 UNK         0.4908 
     56 O          29.9654  -51.3116  -53.0905 O.2       3 UNK        -0.5102 
     57 CA         31.5640  -50.6592  -51.4298 C.3       3 UNK         0.0241 
     58 CB         31.6763  -51.8486  -50.4625 C.3       3 UNK        -0.1971 
     59 N          32.8103  -49.8804  -51.3918 N.am      3 UNK        -0.4139 
     60 C          33.0225  -48.7353  -52.0560 C.2       2 UNK         0.5016 
     61 O          32.1984  -48.2203  -52.8148 O.2       2 UNK        -0.5319 
     62 CA         34.3994  -48.0863  -51.8818 C.3       2 UNK         0.0286 
     63 CB         35.4734  -48.8521  -52.6772 C.3       2 UNK        -0.1963 
     64 N          34.3418  -46.7049  -52.3562 N.am      2 UNK        -0.4790 
     65 C          35.0758  -45.6980  -51.8721 C.2       1 UNK         0.5024 
     66 O          35.8807  -45.8274  -50.9462 O.2       1 UNK        -0.4888 
     67 H67        37.2225  -45.7756  -53.8250 H         1 UNK         0.0892 
     68 H68        36.4785  -44.6482  -54.9750 H         1 UNK         0.0892 
     69 H69        38.2250  -44.7137  -54.8036 H         1 UNK         0.0892 
     70 H70        36.1083  -42.8101  -51.7427 H         1 UNK         0.3107 
     71 H71        34.6513  -44.4832  -53.5819 H         1 UNK         0.0773 
     72 H72        33.8362  -43.4513  -50.8092 H         1 UNK         0.0680 
     73 H73        32.7685  -44.1733  -51.9831 H         1 UNK         0.0680 
     74 H74        31.2156  -40.9354  -52.8387 H         1 UNK         0.0650 
     75 H75        31.0656  -42.5757  -52.2701 H         1 UNK         0.0650 
     76 H76        32.7749  -43.9351  -54.4910 H         1 UNK         0.1397 
     77 H77        30.3278  -43.6100  -57.9817 H         1 UNK         0.1363 
     78 H78        29.6519  -41.0109  -54.6413 H         1 UNK         0.1355 
     79 H79        28.3698  -40.6938  -56.6167 H         1 UNK         0.0707 
     80 H80        29.0550  -41.2620  -58.1178 H         1 UNK         0.0707 
     81 H81        27.4887  -42.5565  -54.9600 H         1 UNK         0.1034 
     82 H82        25.8712  -42.9288  -55.4247 H         1 UNK         0.1034 
     83 H83        28.1758  -44.9195  -55.7734 H         1 UNK         0.0482 
     84 H84        28.9478  -43.8493  -53.6329 H         1 UNK         0.3460 
     85 H85        28.3849  -44.6646  -52.1964 H         1 UNK         0.3460 
     86 H86        26.7684  -46.3463  -56.6070 H         1 UNK         0.2989 
     87 H87        24.0377  -47.5491  -56.0955 H         1 UNK         0.0559 
     88 H88        22.2019  -46.0215  -56.6399 H         1 UNK         0.0848 
     89 H89        22.4033  -47.1561  -57.9626 H         1 UNK         0.0848 
     90 H90        22.9945  -45.5014  -58.1166 H         1 UNK         0.0848 
     91 H91        25.3285  -48.3875  -57.6358 H         1 UNK         0.3144 
     92 H92        26.0373  -48.0097  -60.7523 H         1 UNK         0.0727 
     93 H93        28.3519  -46.6727  -59.2423 H         1 UNK         0.0790 
     94 H94        27.6160  -46.1060  -60.7339 H         1 UNK         0.0790 
     95 H95        28.5225  -47.6084  -60.7277 H         1 UNK         0.0790 
     96 H96        27.5161  -48.8731  -58.3059 H         1 UNK         0.3215 
     97 H97        25.9565  -52.0141  -58.2746 H         1 UNK         0.0863 
     98 H98        28.2396  -53.0135  -58.3444 H         1 UNK         0.0808 
     99 H99        28.8727  -51.5609  -59.1177 H         1 UNK         0.0808 
    100 H100       27.7089  -52.5745  -59.9598 H         1 UNK         0.0808 
    101 H101       28.1780  -50.9528  -56.8058 H         1 UNK         0.3118 
    102 H102       26.4279  -48.7446  -54.6966 H         1 UNK         0.0546 
    103 H103       27.3413  -51.5596  -53.8936 H         1 UNK         0.0828 
    104 H104       25.7616  -50.8603  -53.5670 H         1 UNK         0.0828 
    105 H105       27.1912  -50.1788  -52.8078 H         1 UNK         0.0828 
    106 H106       29.0508  -49.7919  -54.4735 H         1 UNK         0.3005 
    107 H107       30.6200  -48.2369  -57.1417 H         1 UNK         0.1257 
    108 H108       30.6491  -46.8298  -54.4213 H         1 UNK         0.0775 
    109 H109       30.1940  -46.0823  -55.9234 H         1 UNK         0.0775 
    110 H110       33.4149  -44.6958  -57.2117 H         1 UNK         0.0840 
    111 H111       31.9376  -45.3636  -57.8669 H         1 UNK         0.0840 
    112 H112       31.6658  -49.1179  -54.6301 H         1 UNK         0.2987 
    113 H113       31.3921  -52.5914  -55.1884 H         1 UNK         0.0785 
    114 H114       33.2217  -52.1605  -56.8430 H         1 UNK         0.0798 
    115 H115       33.8743  -52.6866  -55.3011 H         1 UNK         0.0798 
    116 H116       33.9448  -50.9828  -55.7562 H         1 UNK         0.0798 
    117 H117       33.0906  -51.1618  -53.4236 H         1 UNK         0.3079 
    118 H118       30.7631  -50.0062  -51.0765 H         1 UNK         0.0794 
    119 H119       31.8567  -51.5146  -49.4405 H         1 UNK         0.0786 
    120 H120       32.4848  -52.5243  -50.7443 H         1 UNK         0.0786 
    121 H121       30.7537  -52.4312  -50.4515 H         1 UNK         0.0786 
    122 H122       33.5450  -50.2403  -50.7990 H         1 UNK         0.3032 
    123 H123       34.6458  -48.1022  -50.8173 H         1 UNK         0.1094 
    124 H124       35.2476  -48.8677  -53.7445 H         1 UNK         0.0794 
    125 H125       36.4570  -48.3989  -52.5520 H         1 UNK         0.0794 
    126 H126       35.5539  -49.8872  -52.3433 H         1 UNK         0.0794 
    127 H127       33.6342  -46.5416  -53.0639 H         1 UNK         0.3016 
@<TRIPOS>BOND
     1    1    2 1    
     2    1   67 1    
     3    1   68 1    
     4    1   69 1    
     5    2    3 2    
     6    2    4 am   BACKBONE|DICT|INTERRES
     7    4    5 1    
     8    4   70 1    
     9    5    6 1    
    10    5   65 1    
    11    5   71 1    
    12    6    7 1    
    13    6   72 1    
    14    6   73 1    
    15    7    8 1    
    16    8    9 1    
    17    8   74 1    
    18    8   75 1    
    19    9   10 ar   
    20    9   14 ar   
    21   10   11 ar   
    22   10   76 1    
    23   11   12 ar   
    24   11   48 1    
    25   12   13 ar   
    26   12   77 1    
    27   13   14 ar   
    28   13   15 1    
    29   14   78 1    
    30   15   16 1    
    31   15   79 1    
    32   15   80 1    
    33   16   17 1    
    34   17   18 1    
    35   17   81 1    
    36   17   82 1    
    37   18   19 1    
    38   18   22 1    
    39   18   83 1    
    40   19   20 am   BACKBONE|DICT|INTERRES
    41   19   21 2    
    42   20   84 1    
    43   20   85 1    
    44   22   23 am   BACKBONE|DICT|INTERRES
    45   22   86 1    
    46   23   24 2    
    47   23   25 1    
    48   25   26 1    
    49   25   27 1    
    50   25   87 1    
    51   26   88 1    
    52   26   89 1    
    53   26   90 1    
    54   27   28 am   BACKBONE|DICT|INTERRES
    55   27   91 1    
    56   28   29 2    
    57   28   30 1    
    58   30   31 1    
    59   30   32 1    
    60   30   92 1    
    61   31   93 1    
    62   31   94 1    
    63   31   95 1    
    64   32   33 am   BACKBONE|DICT|INTERRES
    65   32   96 1    
    66   33   34 2    
    67   33   35 1    
    68   35   36 1    
    69   35   37 1    
    70   35   97 1    
    71   36   98 1    
    72   36   99 1    
    73   36  100 1    
    74   37   38 am   BACKBONE|DICT|INTERRES
    75   37  101 1    
    76   38   39 2    
    77   38   40 1    
    78   40   41 1    
    79   40   42 1    
    80   40  102 1    
    81   41  103 1    
    82   41  104 1    
    83   41  105 1    
    84   42   43 am   BACKBONE|DICT|INTERRES
    85   42  106 1    
    86   43   44 2    
    87   43   45 1    
    88   45   46 1    
    89   45   49 1    
    90   45  107 1    
    91   46   47 1    
    92   46  108 1    
    93   46  109 1    
    94   47   48 1    
    95   48  110 1    
    96   48  111 1    
    97   49   50 am   BACKBONE|DICT|INTERRES
    98   49  112 1    
    99   50   51 2    
   100   50   52 1    
   101   52   53 1    
   102   52   54 1    
   103   52  113 1    
   104   53  114 1    
   105   53  115 1    
   106   53  116 1    
   107   54   55 am   BACKBONE|DICT|INTERRES
   108   54  117 1    
   109   55   56 2    
   110   55   57 1    
   111   57   58 1    
   112   57   59 1    
   113   57  118 1    
   114   58  119 1    
   115   58  120 1    
   116   58  121 1    
   117   59   60 am   BACKBONE|DICT|INTERRES
   118   59  122 1    
   119   60   61 2    
   120   60   62 1    
   121   62   63 1    
   122   62   64 1    
   123   62  123 1    
   124   63  124 1    
   125   63  125 1    
   126   63  126 1    
   127   64   65 am   BACKBONE|DICT|INTERRES
   128   64  127 1    
   129   65   66 2    
@<TRIPOS>SUBSTRUCTURE
     1 UNK         1 GROUP             0       ****    0 ROOT    
