@<TRIPOS>MOLECULE
3R134
127   129    1
SMALL
USER_CHARGES


@<TRIPOS>ATOM
      1 CA         36.1503  -47.2190  -53.2179 C.3       0 UNK        -0.1968 
      2 C          34.7590  -46.6301  -53.0456 C.2       0 UNK         0.4852 
      3 O          33.7871  -47.3796  -52.9672 O.2       0 UNK        -0.5359 
      4 N          34.6597  -45.2961  -52.9636 N.am      1 UNK        -0.4300 
      5 CA         33.4142  -44.5120  -52.9061 C.3       1 UNK         0.0863 
      6 C6         33.6936  -42.9879  -52.9863 C.3       11 UNK        -0.0953 
      7 S7         34.7710  -42.5144  -54.3824 S.3       11 UNK        -0.2369 
      8 C8         33.5937  -41.7357  -55.5329 C.3       11 UNK         0.0226 
      9 C9         32.6502  -42.7468  -56.1689 C.ar      11 UNK        -0.0699 
     10 C10        33.1527  -43.7309  -57.0263 C.ar      11 UNK        -0.0804 
     11 C11        32.2933  -44.6549  -57.6257 C.ar      11 UNK        -0.0871 
     12 C12        30.9199  -44.5796  -57.3743 C.ar      11 UNK        -0.1008 
     13 C13        30.4023  -43.5998  -56.5229 C.ar      11 UNK        -0.0735 
     14 C14        31.2743  -42.6843  -55.9234 C.ar      11 UNK        -0.0945 
     15 C15        28.8973  -43.5097  -56.2954 C.3       11 UNK         0.0169 
     16 S16        28.4271  -43.5926  -54.5373 S.3       11 UNK        -0.2669 
     17 C17        28.8292  -45.3212  -54.0965 C.3       11 UNK        -0.0850 
     18 CA         27.6590  -46.1037  -53.4412 C.3       10 UNK         0.0855 
     19 C          27.2074  -45.4943  -52.0801 C.2       10 UNK         0.5543 
     20 N          25.9872  -44.9845  -51.9556 N.am      10 UNK        -0.7343 
     21 O          27.9660  -45.5068  -51.1149 O.2       10 UNK        -0.5027 
     22 N          26.5792  -46.3732  -54.4023 N.am      10 UNK        -0.4495 
     23 C          25.6503  -47.3274  -54.2699 C.2       10 UNK         0.4903 
     24 O          25.6145  -48.1208  -53.3297 O.2       10 UNK        -0.4860 
     25 CA         24.5848  -47.4360  -55.3761 C.3       9 UNK         0.0227 
     26 CB         23.5411  -46.3074  -55.2613 C.3       9 UNK        -0.1964 
     27 N          25.1365  -47.5356  -56.7345 N.am      9 UNK        -0.4231 
     28 C          25.8326  -46.6304  -57.4354 C.2       9 UNK         0.5014 
     29 O          26.0775  -45.4936  -57.0287 O.2       9 UNK        -0.5270 
     30 CA         26.3616  -47.0879  -58.8080 C.3       8 UNK         0.0284 
     31 CB         27.3215  -46.0660  -59.4455 C.3       8 UNK        -0.1977 
     32 N          27.0373  -48.3877  -58.7391 N.am      8 UNK        -0.4342 
     33 C          26.4265  -49.5823  -58.7557 C.2       8 UNK         0.5039 
     34 O          25.2005  -49.6989  -58.7092 O.2       8 UNK        -0.5547 
     35 CA         27.3031  -50.8534  -58.7934 C.3       7 UNK         0.0281 
     36 CB         26.6883  -51.9635  -59.6717 C.3       7 UNK        -0.1963 
     37 N          28.7019  -50.6009  -59.1604 N.am      7 UNK        -0.4444 
     38 C          29.1738  -50.0957  -60.3130 C.2       7 UNK         0.5104 
     39 O          28.4771  -49.9025  -61.3100 O.2       7 UNK        -0.5100 
     40 CA         30.6686  -49.7014  -60.3483 C.3       6 UNK         0.0396 
     41 CB         30.9095  -48.4345  -61.1970 C.3       6 UNK        -0.1801 
     42 N          31.2863  -49.5470  -59.0217 N.am      6 UNK        -0.4747 
     43 C          30.9075  -48.7073  -58.0449 C.2       6 UNK         0.5012 
     44 O          29.9616  -47.9205  -58.1405 O.2       6 UNK        -0.5003 
     45 CA         31.6720  -48.8241  -56.7108 C.3       5 UNK         0.0782 
     46 C46        32.5134  -47.5709  -56.3733 C.3       11 UNK        -0.0868 
     47 S47        33.7314  -47.0538  -57.6340 S.3       11 UNK        -0.2515 
     48 C48        32.8430  -45.7407  -58.5418 C.3       11 UNK         0.0199 
     49 N          30.7404  -49.0811  -55.6147 N.am      5 UNK        -0.4607 
     50 C          29.8409  -50.0627  -55.5076 C.2       4 UNK         0.5031 
     51 O          29.7115  -50.9642  -56.3384 O.2       4 UNK        -0.5119 
     52 CA         28.9451  -50.0146  -54.2506 C.3       4 UNK         0.0263 
     53 CB         27.9265  -51.1681  -54.2057 C.3       4 UNK        -0.1967 
     54 N          29.7145  -50.0000  -52.9976 N.am      4 UNK        -0.4237 
     55 C          30.4419  -48.9730  -52.5331 C.2       3 UNK         0.4908 
     56 O          30.5252  -47.8873  -53.1121 O.2       3 UNK        -0.5102 
     57 CA         31.2296  -49.2180  -51.2378 C.3       3 UNK         0.0241 
     58 CB         32.3245  -50.2780  -51.4576 C.3       3 UNK        -0.1971 
     59 N          31.8748  -47.9759  -50.8141 N.am      3 UNK        -0.4139 
     60 C          31.5624  -47.2653  -49.7228 C.2       2 UNK         0.5016 
     61 O          30.7157  -47.6168  -48.8993 O.2       2 UNK        -0.5319 
     62 CA         32.3348  -45.9531  -49.4761 C.3       2 UNK         0.0286 
     63 CB         33.3279  -46.1248  -48.3143 C.3       2 UNK        -0.1963 
     64 N          33.0678  -45.4796  -50.6533 N.am      2 UNK        -0.4790 
     65 C          32.5190  -44.8141  -51.6797 C.2       1 UNK         0.5024 
     66 O          31.3529  -44.4237  -51.6780 O.2       1 UNK        -0.4888 
     67 H67        36.9205  -46.4484  -53.2418 H         1 UNK         0.0892 
     68 H68        36.3742  -47.8992  -52.3968 H         1 UNK         0.0892 
     69 H69        36.2031  -47.7807  -54.1502 H         1 UNK         0.0892 
     70 H70        35.4995  -44.7388  -53.0337 H         1 UNK         0.3107 
     71 H71        32.8301  -44.7922  -53.7861 H         1 UNK         0.0773 
     72 H72        32.7564  -42.4323  -53.0571 H         1 UNK         0.0680 
     73 H73        34.1782  -42.6436  -52.0706 H         1 UNK         0.0680 
     74 H74        33.0410  -40.9534  -55.0105 H         1 UNK         0.0650 
     75 H75        34.1569  -41.2359  -56.3221 H         1 UNK         0.0650 
     76 H76        34.2160  -43.7848  -57.2170 H         1 UNK         0.1397 
     77 H77        30.2536  -45.2925  -57.8395 H         1 UNK         0.1363 
     78 H78        30.8762  -41.9201  -55.2699 H         1 UNK         0.1355 
     79 H79        28.3753  -44.2967  -56.8393 H         1 UNK         0.0707 
     80 H80        28.5389  -42.5656  -56.7073 H         1 UNK         0.0707 
     81 H81        29.6859  -45.3074  -53.4227 H         1 UNK         0.1034 
     82 H82        29.1753  -45.8570  -54.9819 H         1 UNK         0.1034 
     83 H83        28.0600  -47.0801  -53.1723 H         1 UNK         0.0482 
     84 H84        25.3631  -44.9672  -52.7454 H         1 UNK         0.3460 
     85 H85        25.6982  -44.6002  -51.0702 H         1 UNK         0.3460 
     86 H86        26.5322  -45.7737  -55.2228 H         1 UNK         0.2989 
     87 H87        24.0589  -48.3777  -55.2109 H         1 UNK         0.0559 
     88 H88        22.7445  -46.4297  -55.9950 H         1 UNK         0.0848 
     89 H89        23.9813  -45.3208  -55.4084 H         1 UNK         0.0848 
     90 H90        23.0750  -46.3089  -54.2751 H         1 UNK         0.0848 
     91 H91        25.0005  -48.4317  -57.1960 H         1 UNK         0.3144 
     92 H92        25.4951  -47.1779  -59.4665 H         1 UNK         0.0727 
     93 H93        27.6556  -46.3956  -60.4295 H         1 UNK         0.0790 
     94 H94        28.2056  -45.9083  -58.8284 H         1 UNK         0.0790 
     95 H95        26.8362  -45.0978  -59.5757 H         1 UNK         0.0790 
     96 H96        28.0515  -48.3578  -58.6841 H         1 UNK         0.3215 
     97 H97        27.3277  -51.2249  -57.7681 H         1 UNK         0.0863 
     98 H98        27.3146  -52.8555  -59.6803 H         1 UNK         0.0808 
     99 H99        26.5520  -51.6377  -60.7031 H         1 UNK         0.0808 
    100 H100       25.7087  -52.2617  -59.2961 H         1 UNK         0.0808 
    101 H101       29.3593  -50.7171  -58.3953 H         1 UNK         0.3118 
    102 H102       31.1879  -50.5296  -60.8321 H         1 UNK         0.0546 
    103 H103       30.3518  -47.5789  -60.8145 H         1 UNK         0.0828 
    104 H104       30.5970  -48.5883  -62.2305 H         1 UNK         0.0828 
    105 H105       31.9652  -48.1646  -61.2177 H         1 UNK         0.0828 
    106 H106       32.0567  -50.1755  -58.8368 H         1 UNK         0.3005 
    107 H107       32.3451  -49.6818  -56.7667 H         1 UNK         0.1257 
    108 H108       31.8608  -46.7409  -56.1076 H         1 UNK         0.0775 
    109 H109       33.0829  -47.7724  -55.4660 H         1 UNK         0.0775 
    110 H110       33.5256  -45.2905  -59.2639 H         1 UNK         0.0840 
    111 H111       32.0408  -46.1892  -59.1292 H         1 UNK         0.0840 
    112 H112       30.7683  -48.4150  -54.8455 H         1 UNK         0.2987 
    113 H113       28.3766  -49.0854  -54.3130 H         1 UNK         0.0785 
    114 H114       27.2549  -51.0697  -53.3525 H         1 UNK         0.0798 
    115 H115       28.4178  -52.1396  -54.1402 H         1 UNK         0.0798 
    116 H116       27.3045  -51.1756  -55.1017 H         1 UNK         0.0798 
    117 H117       29.7247  -50.8656  -52.4775 H         1 UNK         0.3079 
    118 H118       30.5324  -49.5738  -50.4766 H         1 UNK         0.0794 
    119 H119       31.8983  -51.2468  -51.7197 H         1 UNK         0.0786 
    120 H120       32.9183  -50.4235  -50.5551 H         1 UNK         0.0786 
    121 H121       33.0057  -49.9917  -52.2606 H         1 UNK         0.0786 
    122 H122       32.5253  -47.5833  -51.4910 H         1 UNK         0.3032 
    123 H123       31.5997  -45.1971  -49.1898 H         1 UNK         0.1094 
    124 H124       32.8147  -46.4430  -47.4056 H         1 UNK         0.0794 
    125 H125       34.0869  -46.8752  -48.5390 H         1 UNK         0.0794 
    126 H126       33.8367  -45.1884  -48.0849 H         1 UNK         0.0794 
    127 H127       34.0347  -45.7595  -50.7338 H         1 UNK         0.3016 
@<TRIPOS>BOND
     1    1    2 1    
     2    1   67 1    
     3    1   68 1    
     4    1   69 1    
     5    2    3 2    
     6    2    4 am   BACKBONE|DICT|INTERRES
     7    4    5 1    
     8    4   70 1    
     9    5    6 1    
    10    5   65 1    
    11    5   71 1    
    12    6    7 1    
    13    6   72 1    
    14    6   73 1    
    15    7    8 1    
    16    8    9 1    
    17    8   74 1    
    18    8   75 1    
    19    9   10 ar   
    20    9   14 ar   
    21   10   11 ar   
    22   10   76 1    
    23   11   12 ar   
    24   11   48 1    
    25   12   13 ar   
    26   12   77 1    
    27   13   14 ar   
    28   13   15 1    
    29   14   78 1    
    30   15   16 1    
    31   15   79 1    
    32   15   80 1    
    33   16   17 1    
    34   17   18 1    
    35   17   81 1    
    36   17   82 1    
    37   18   19 1    
    38   18   22 1    
    39   18   83 1    
    40   19   20 am   BACKBONE|DICT|INTERRES
    41   19   21 2    
    42   20   84 1    
    43   20   85 1    
    44   22   23 am   BACKBONE|DICT|INTERRES
    45   22   86 1    
    46   23   24 2    
    47   23   25 1    
    48   25   26 1    
    49   25   27 1    
    50   25   87 1    
    51   26   88 1    
    52   26   89 1    
    53   26   90 1    
    54   27   28 am   BACKBONE|DICT|INTERRES
    55   27   91 1    
    56   28   29 2    
    57   28   30 1    
    58   30   31 1    
    59   30   32 1    
    60   30   92 1    
    61   31   93 1    
    62   31   94 1    
    63   31   95 1    
    64   32   33 am   BACKBONE|DICT|INTERRES
    65   32   96 1    
    66   33   34 2    
    67   33   35 1    
    68   35   36 1    
    69   35   37 1    
    70   35   97 1    
    71   36   98 1    
    72   36   99 1    
    73   36  100 1    
    74   37   38 am   BACKBONE|DICT|INTERRES
    75   37  101 1    
    76   38   39 2    
    77   38   40 1    
    78   40   41 1    
    79   40   42 1    
    80   40  102 1    
    81   41  103 1    
    82   41  104 1    
    83   41  105 1    
    84   42   43 am   BACKBONE|DICT|INTERRES
    85   42  106 1    
    86   43   44 2    
    87   43   45 1    
    88   45   46 1    
    89   45   49 1    
    90   45  107 1    
    91   46   47 1    
    92   46  108 1    
    93   46  109 1    
    94   47   48 1    
    95   48  110 1    
    96   48  111 1    
    97   49   50 am   BACKBONE|DICT|INTERRES
    98   49  112 1    
    99   50   51 2    
   100   50   52 1    
   101   52   53 1    
   102   52   54 1    
   103   52  113 1    
   104   53  114 1    
   105   53  115 1    
   106   53  116 1    
   107   54   55 am   BACKBONE|DICT|INTERRES
   108   54  117 1    
   109   55   56 2    
   110   55   57 1    
   111   57   58 1    
   112   57   59 1    
   113   57  118 1    
   114   58  119 1    
   115   58  120 1    
   116   58  121 1    
   117   59   60 am   BACKBONE|DICT|INTERRES
   118   59  122 1    
   119   60   61 2    
   120   60   62 1    
   121   62   63 1    
   122   62   64 1    
   123   62  123 1    
   124   63  124 1    
   125   63  125 1    
   126   63  126 1    
   127   64   65 am   BACKBONE|DICT|INTERRES
   128   64  127 1    
   129   65   66 2    
@<TRIPOS>SUBSTRUCTURE
     1 UNK         1 GROUP             0       ****    0 ROOT    
