@<TRIPOS>MOLECULE
3R134
127   129    1
SMALL
USER_CHARGES


@<TRIPOS>ATOM
      1 CA         28.5145  -45.5380  -49.0196 C.3       0 UNK        -0.1968 
      2 C          30.0053  -45.4685  -49.3177 C.2       0 UNK         0.4852 
      3 O          30.8024  -45.2583  -48.4017 O.2       0 UNK        -0.5359 
      4 N          30.3848  -45.6348  -50.5914 N.am      1 UNK        -0.4300 
      5 CA         31.7756  -45.6735  -51.0521 C.3       1 UNK         0.0863 
      6 C6         31.8558  -45.4554  -52.5842 C.3       11 UNK        -0.0953 
      7 S7         33.4992  -44.8908  -53.1371 S.3       11 UNK        -0.2369 
      8 C8         33.0515  -43.5721  -54.3094 C.3       11 UNK         0.0226 
      9 C9         32.3339  -44.1230  -55.5342 C.ar      11 UNK        -0.0699 
     10 C10        33.0493  -44.8365  -56.4984 C.ar      11 UNK        -0.0804 
     11 C11        32.4069  -45.3398  -57.6326 C.ar      11 UNK        -0.0871 
     12 C12        31.0337  -45.1336  -57.7955 C.ar      11 UNK        -0.1008 
     13 C13        30.3094  -44.3952  -56.8521 C.ar      11 UNK        -0.0735 
     14 C14        30.9655  -43.9008  -55.7190 C.ar      11 UNK        -0.0945 
     15 C15        28.8281  -44.1030  -57.0657 C.3       11 UNK         0.0169 
     16 S16        28.5572  -43.1957  -58.6293 S.3       11 UNK        -0.2669 
     17 C17        26.9979  -42.2365  -58.4886 C.3       11 UNK        -0.0850 
     18 CA         26.1722  -42.3234  -57.1769 C.3       10 UNK         0.0855 
     19 C          25.0428  -41.2495  -57.1661 C.2       10 UNK         0.5543 
     20 N          23.7673  -41.6187  -57.1645 N.am      10 UNK        -0.7343 
     21 O          25.3334  -40.0559  -57.1524 O.2       10 UNK        -0.5027 
     22 N          25.6961  -43.6917  -56.9317 N.am      10 UNK        -0.4495 
     23 C          25.3395  -44.1834  -55.7415 C.2       10 UNK         0.4903 
     24 O          25.4160  -43.5465  -54.6907 O.2       10 UNK        -0.4860 
     25 CA         24.8223  -45.6322  -55.6966 C.3       9 UNK         0.0227 
     26 CB         23.2839  -45.6731  -55.7782 C.3       9 UNK        -0.1964 
     27 N          25.4388  -46.5496  -56.6679 N.am      9 UNK        -0.4231 
     28 C          25.3320  -46.5721  -58.0075 C.2       9 UNK         0.5014 
     29 O          24.6963  -45.7356  -58.6504 O.2       9 UNK        -0.5270 
     30 CA         26.0808  -47.6793  -58.7774 C.3       8 UNK         0.0284 
     31 CB         27.2105  -47.0708  -59.6265 C.3       8 UNK        -0.1977 
     32 N          26.6364  -48.7222  -57.9098 N.am      8 UNK        -0.4342 
     33 C          25.9091  -49.6727  -57.3006 C.2       8 UNK         0.5039 
     34 O          24.7061  -49.8386  -57.5053 O.2       8 UNK        -0.5547 
     35 CA         26.6156  -50.5717  -56.2639 C.3       7 UNK         0.0281 
     36 CB         26.9333  -51.9460  -56.8752 C.3       7 UNK        -0.1963 
     37 N          27.8472  -50.0061  -55.7050 N.am      7 UNK        -0.4444 
     38 C          27.9574  -48.8374  -55.0551 C.2       7 UNK         0.5104 
     39 O          26.9978  -48.1231  -54.7671 O.2       7 UNK        -0.5100 
     40 CA         29.3834  -48.3535  -54.7272 C.3       6 UNK         0.0396 
     41 CB         29.7232  -48.7554  -53.2841 C.3       6 UNK        -0.1801 
     42 N          30.4214  -48.8615  -55.6400 N.am      6 UNK        -0.4747 
     43 C          30.3971  -48.7732  -56.9836 C.2       6 UNK         0.5012 
     44 O          29.5146  -48.1703  -57.5956 O.2       6 UNK        -0.5003 
     45 CA         31.4475  -49.5599  -57.8009 C.3       5 UNK         0.0782 
     46 C46        32.1769  -48.6914  -58.8582 C.3       11 UNK        -0.0868 
     47 S47        33.6131  -47.7640  -58.2167 S.3       11 UNK        -0.2515 
     48 C48        33.2188  -46.0569  -58.6987 C.3       11 UNK         0.0199 
     49 N          32.3804  -50.3407  -56.9848 N.am      5 UNK        -0.4607 
     50 C          32.0950  -51.4682  -56.3229 C.2       4 UNK         0.5031 
     51 O          30.9989  -52.0268  -56.3714 O.2       4 UNK        -0.5119 
     52 CA         33.2083  -52.0461  -55.4273 C.3       4 UNK         0.0263 
     53 CB         33.9494  -53.1767  -56.1587 C.3       4 UNK        -0.1967 
     54 N          34.1835  -51.0489  -54.9593 N.am      4 UNK        -0.4237 
     55 C          33.8865  -49.9981  -54.1813 C.2       3 UNK         0.4908 
     56 O          32.7450  -49.7377  -53.7995 O.2       3 UNK        -0.5102 
     57 CA         35.0438  -49.0487  -53.8319 C.3       3 UNK         0.0241 
     58 CB         35.2023  -47.9774  -54.9225 C.3       3 UNK        -0.1971 
     59 N          34.8207  -48.3798  -52.5502 N.am      3 UNK        -0.4139 
     60 C          34.9438  -48.9612  -51.3490 C.2       2 UNK         0.5016 
     61 O          35.3198  -50.1234  -51.1874 O.2       2 UNK        -0.5319 
     62 CA         34.6190  -48.1001  -50.1132 C.3       2 UNK         0.0286 
     63 CB         35.9146  -47.6175  -49.4402 C.3       2 UNK        -0.1963 
     64 N          33.7822  -46.9364  -50.4239 N.am      2 UNK        -0.4790 
     65 C          32.4595  -46.9919  -50.6275 C.2       1 UNK         0.5024 
     66 O          31.7966  -48.0261  -50.5185 O.2       1 UNK        -0.4888 
     67 H67        27.9256  -45.7169  -49.9192 H         1 UNK         0.0892 
     68 H68        28.3105  -46.3443  -48.3156 H         1 UNK         0.0892 
     69 H69        28.1767  -44.6026  -48.5742 H         1 UNK         0.0892 
     70 H70        29.6857  -45.8329  -51.2919 H         1 UNK         0.3107 
     71 H71        32.2949  -44.8476  -50.5601 H         1 UNK         0.0773 
     72 H72        31.5913  -46.3526  -53.1433 H         1 UNK         0.0680 
     73 H73        31.1252  -44.7004  -52.8772 H         1 UNK         0.0680 
     74 H74        33.9611  -43.0598  -54.6257 H         1 UNK         0.0650 
     75 H75        32.4414  -42.8245  -53.8001 H         1 UNK         0.0650 
     76 H76        34.1108  -44.9972  -56.3666 H         1 UNK         0.1397 
     77 H77        30.5304  -45.5183  -58.6721 H         1 UNK         0.1363 
     78 H78        30.4138  -43.3311  -54.9839 H         1 UNK         0.1355 
     79 H79        28.2712  -45.0407  -57.0824 H         1 UNK         0.0707 
     80 H80        28.4508  -43.5270  -56.2226 H         1 UNK         0.0707 
     81 H81        27.2765  -41.1974  -58.6764 H         1 UNK         0.1034 
     82 H82        26.3669  -42.5183  -59.3338 H         1 UNK         0.1034 
     83 H83        26.8277  -42.0395  -56.3529 H         1 UNK         0.0482 
     84 H84        23.0473  -40.9134  -57.1536 H         1 UNK         0.3460 
     85 H85        23.5202  -42.5949  -57.1803 H         1 UNK         0.3460 
     86 H86        25.5296  -44.2735  -57.7474 H         1 UNK         0.2989 
     87 H87        25.1038  -46.0246  -54.7182 H         1 UNK         0.0559 
     88 H88        22.9120  -45.2829  -56.7259 H         1 UNK         0.0848 
     89 H89        22.8367  -45.0730  -54.9846 H         1 UNK         0.0848 
     90 H90        22.9089  -46.6902  -55.6648 H         1 UNK         0.0848 
     91 H91        26.0256  -47.2570  -56.2341 H         1 UNK         0.3144 
     92 H92        25.3618  -48.1444  -59.4550 H         1 UNK         0.0727 
     93 H93        27.9404  -46.5431  -59.0119 H         1 UNK         0.0790 
     94 H94        26.8158  -46.3520  -60.3458 H         1 UNK         0.0790 
     95 H95        27.7410  -47.8368  -60.1923 H         1 UNK         0.0790 
     96 H96        27.6294  -48.6461  -57.7015 H         1 UNK         0.3215 
     97 H97        25.9183  -50.7148  -55.4358 H         1 UNK         0.0863 
     98 H98        27.3440  -52.6279  -56.1303 H         1 UNK         0.0808 
     99 H99        27.6527  -51.8676  -57.6916 H         1 UNK         0.0808 
    100 H100       26.0330  -52.4130  -57.2773 H         1 UNK         0.0808 
    101 H101       28.6995  -50.5200  -55.8824 H         1 UNK         0.3118 
    102 H102       29.3913  -47.2641  -54.7998 H         1 UNK         0.0546 
    103 H103       28.9935  -48.3536  -52.5798 H         1 UNK         0.0828 
    104 H104       30.6985  -48.3840  -52.9803 H         1 UNK         0.0828 
    105 H105       29.7353  -49.8390  -53.1599 H         1 UNK         0.0828 
    106 H106       31.1968  -49.3475  -55.2016 H         1 UNK         0.3005 
    107 H107       30.8510  -50.2819  -58.3640 H         1 UNK         0.1257 
    108 H108       31.4813  -48.0177  -59.3622 H         1 UNK         0.0775 
    109 H109       32.5565  -49.3443  -59.6456 H         1 UNK         0.0775 
    110 H110       34.1548  -45.5184  -58.8543 H         1 UNK         0.0840 
    111 H111       32.7058  -46.0416  -59.6615 H         1 UNK         0.0840 
    112 H112       33.3018  -49.9402  -56.8837 H         1 UNK         0.2987 
    113 H113       32.7224  -52.4693  -54.5455 H         1 UNK         0.0785 
    114 H114       33.2530  -53.9464  -56.4948 H         1 UNK         0.0798 
    115 H115       34.6754  -53.6634  -55.5071 H         1 UNK         0.0798 
    116 H116       34.4787  -52.8098  -57.0391 H         1 UNK         0.0798 
    117 H117       35.1423  -51.1866  -55.2464 H         1 UNK         0.3079 
    118 H118       35.9690  -49.6251  -53.7643 H         1 UNK         0.0794 
    119 H119       34.2820  -47.4084  -55.0663 H         1 UNK         0.0786 
    120 H120       35.4606  -48.4298  -55.8803 H         1 UNK         0.0786 
    121 H121       35.9962  -47.2717  -54.6771 H         1 UNK         0.0786 
    122 H122       34.4649  -47.4359  -52.5878 H         1 UNK         0.3032 
    123 H123       34.0840  -48.7389  -49.4062 H         1 UNK         0.1094 
    124 H124       36.4966  -46.9712  -50.0985 H         1 UNK         0.0794 
    125 H125       35.7042  -47.0643  -48.5246 H         1 UNK         0.0794 
    126 H126       36.5502  -48.4612  -49.1673 H         1 UNK         0.0794 
    127 H127       34.2564  -46.0509  -50.5381 H         1 UNK         0.3016 
@<TRIPOS>BOND
     1    1    2 1    
     2    1   67 1    
     3    1   68 1    
     4    1   69 1    
     5    2    3 2    
     6    2    4 am   BACKBONE|DICT|INTERRES
     7    4    5 1    
     8    4   70 1    
     9    5    6 1    
    10    5   65 1    
    11    5   71 1    
    12    6    7 1    
    13    6   72 1    
    14    6   73 1    
    15    7    8 1    
    16    8    9 1    
    17    8   74 1    
    18    8   75 1    
    19    9   10 ar   
    20    9   14 ar   
    21   10   11 ar   
    22   10   76 1    
    23   11   12 ar   
    24   11   48 1    
    25   12   13 ar   
    26   12   77 1    
    27   13   14 ar   
    28   13   15 1    
    29   14   78 1    
    30   15   16 1    
    31   15   79 1    
    32   15   80 1    
    33   16   17 1    
    34   17   18 1    
    35   17   81 1    
    36   17   82 1    
    37   18   19 1    
    38   18   22 1    
    39   18   83 1    
    40   19   20 am   BACKBONE|DICT|INTERRES
    41   19   21 2    
    42   20   84 1    
    43   20   85 1    
    44   22   23 am   BACKBONE|DICT|INTERRES
    45   22   86 1    
    46   23   24 2    
    47   23   25 1    
    48   25   26 1    
    49   25   27 1    
    50   25   87 1    
    51   26   88 1    
    52   26   89 1    
    53   26   90 1    
    54   27   28 am   BACKBONE|DICT|INTERRES
    55   27   91 1    
    56   28   29 2    
    57   28   30 1    
    58   30   31 1    
    59   30   32 1    
    60   30   92 1    
    61   31   93 1    
    62   31   94 1    
    63   31   95 1    
    64   32   33 am   BACKBONE|DICT|INTERRES
    65   32   96 1    
    66   33   34 2    
    67   33   35 1    
    68   35   36 1    
    69   35   37 1    
    70   35   97 1    
    71   36   98 1    
    72   36   99 1    
    73   36  100 1    
    74   37   38 am   BACKBONE|DICT|INTERRES
    75   37  101 1    
    76   38   39 2    
    77   38   40 1    
    78   40   41 1    
    79   40   42 1    
    80   40  102 1    
    81   41  103 1    
    82   41  104 1    
    83   41  105 1    
    84   42   43 am   BACKBONE|DICT|INTERRES
    85   42  106 1    
    86   43   44 2    
    87   43   45 1    
    88   45   46 1    
    89   45   49 1    
    90   45  107 1    
    91   46   47 1    
    92   46  108 1    
    93   46  109 1    
    94   47   48 1    
    95   48  110 1    
    96   48  111 1    
    97   49   50 am   BACKBONE|DICT|INTERRES
    98   49  112 1    
    99   50   51 2    
   100   50   52 1    
   101   52   53 1    
   102   52   54 1    
   103   52  113 1    
   104   53  114 1    
   105   53  115 1    
   106   53  116 1    
   107   54   55 am   BACKBONE|DICT|INTERRES
   108   54  117 1    
   109   55   56 2    
   110   55   57 1    
   111   57   58 1    
   112   57   59 1    
   113   57  118 1    
   114   58  119 1    
   115   58  120 1    
   116   58  121 1    
   117   59   60 am   BACKBONE|DICT|INTERRES
   118   59  122 1    
   119   60   61 2    
   120   60   62 1    
   121   62   63 1    
   122   62   64 1    
   123   62  123 1    
   124   63  124 1    
   125   63  125 1    
   126   63  126 1    
   127   64   65 am   BACKBONE|DICT|INTERRES
   128   64  127 1    
   129   65   66 2    
@<TRIPOS>SUBSTRUCTURE
     1 UNK         1 GROUP             0       ****    0 ROOT    
