@<TRIPOS>MOLECULE
3R134
127   129    1
SMALL
USER_CHARGES


@<TRIPOS>ATOM
      1 CA         38.5163  -44.4424  -49.2297 C.3       0 UNK        -0.1968 
      2 C          37.4953  -45.1749  -50.0875 C.2       0 UNK         0.4852 
      3 O          37.8767  -45.9729  -50.9462 O.2       0 UNK        -0.5359 
      4 N          36.2000  -44.9141  -49.8642 N.am      1 UNK        -0.4300 
      5 CA         35.0798  -45.5478  -50.5642 C.3       1 UNK         0.0863 
      6 C6         33.8193  -44.6412  -50.5490 C.3       11 UNK        -0.0953 
      7 S7         32.6760  -45.0220  -51.9212 S.3       11 UNK        -0.2369 
      8 C8         32.9103  -43.5516  -52.9629 C.3       11 UNK         0.0226 
      9 C9         32.0998  -43.6086  -54.2505 C.ar      11 UNK        -0.0699 
     10 C10        32.7274  -43.9080  -55.4640 C.ar      11 UNK        -0.0804 
     11 C11        32.0142  -43.8457  -56.6648 C.ar      11 UNK        -0.0871 
     12 C12        30.6638  -43.4904  -56.6429 C.ar      11 UNK        -0.1008 
     13 C13        30.0095  -43.2340  -55.4348 C.ar      11 UNK        -0.0735 
     14 C14        30.7365  -43.2938  -54.2402 C.ar      11 UNK        -0.0945 
     15 C15        28.5364  -42.8376  -55.4220 C.3       11 UNK         0.0169 
     16 S16        27.4392  -44.1837  -55.9810 S.3       11 UNK        -0.2669 
     17 C17        27.4890  -44.0007  -57.7998 C.3       11 UNK        -0.0850 
     18 CA         26.1043  -44.1910  -58.4698 C.3       10 UNK         0.0855 
     19 C          26.1719  -43.8750  -59.9938 C.2       10 UNK         0.5543 
     20 N          25.8130  -44.7909  -60.8851 N.am      10 UNK        -0.7343 
     21 O          26.5525  -42.7706  -60.3739 O.2       10 UNK        -0.5027 
     22 N          25.5229  -45.5021  -58.1395 N.am      10 UNK        -0.4495 
     23 C          24.2123  -45.7829  -58.1588 C.2       10 UNK         0.4903 
     24 O          23.3453  -44.9747  -58.4927 O.2       10 UNK        -0.4860 
     25 CA         23.7814  -47.1982  -57.7336 C.3       9 UNK         0.0227 
     26 CB         23.4389  -48.0490  -58.9659 C.3       9 UNK        -0.1964 
     27 N          24.7927  -47.8755  -56.9138 N.am      9 UNK        -0.4231 
     28 C          25.0077  -47.5897  -55.6198 C.2       9 UNK         0.5014 
     29 O          24.3035  -46.8046  -54.9815 O.2       9 UNK        -0.5270 
     30 CA         26.2178  -48.2351  -54.9155 C.3       8 UNK         0.0284 
     31 CB         25.9163  -48.6060  -53.4473 C.3       8 UNK        -0.1977 
     32 N          26.8300  -49.3601  -55.6287 N.am      8 UNK        -0.4342 
     33 C          26.2953  -50.5606  -55.8904 C.2       8 UNK         0.5039 
     34 O          25.1718  -50.9133  -55.5267 O.2       8 UNK        -0.5547 
     35 CA         27.1696  -51.5007  -56.7458 C.3       7 UNK         0.0281 
     36 CB         26.4338  -52.7895  -57.1712 C.3       7 UNK        -0.1963 
     37 N          27.7375  -50.8150  -57.9166 N.am      7 UNK        -0.4444 
     38 C          27.0576  -50.1720  -58.8801 C.2       7 UNK         0.5104 
     39 O          25.8298  -50.1214  -58.9326 O.2       7 UNK        -0.5100 
     40 CA         27.9016  -49.4233  -59.9317 C.3       6 UNK         0.0396 
     41 CB         27.0726  -48.4323  -60.7766 C.3       6 UNK        -0.1801 
     42 N          29.0677  -48.7514  -59.3441 N.am      6 UNK        -0.4747 
     43 C          29.0563  -47.8054  -58.3915 C.2       6 UNK         0.5012 
     44 O          28.0277  -47.3199  -57.9104 O.2       6 UNK        -0.5003 
     45 CA         30.4455  -47.3486  -57.9002 C.3       5 UNK         0.0782 
     46 C46        31.0418  -46.2615  -58.8261 C.3       11 UNK        -0.0868 
     47 S47        32.7775  -45.8832  -58.3991 S.3       11 UNK        -0.2515 
     48 C48        32.7126  -44.1100  -57.9913 C.3       11 UNK         0.0199 
     49 N          30.4552  -46.9437  -56.4912 N.am      5 UNK        -0.4607 
     50 C          30.1775  -47.7539  -55.4647 C.2       4 UNK         0.5031 
     51 O          29.7213  -48.8950  -55.5887 O.2       4 UNK        -0.5119 
     52 CA         30.4894  -47.2077  -54.0640 C.3       4 UNK         0.0263 
     53 CB         29.2555  -46.5861  -53.3968 C.3       4 UNK        -0.1967 
     54 N          31.0090  -48.2751  -53.2102 N.am      4 UNK        -0.4237 
     55 C          32.2760  -48.7003  -53.2378 C.2       3 UNK         0.4908 
     56 O          33.1638  -48.1931  -53.9290 O.2       3 UNK        -0.5102 
     57 CA         32.6223  -49.8906  -52.3403 C.3       3 UNK         0.0241 
     58 CB         32.7129  -51.1978  -53.1475 C.3       3 UNK        -0.1971 
     59 N          33.9016  -49.5821  -51.7193 N.am      3 UNK        -0.4139 
     60 C          34.3320  -50.0193  -50.5322 C.2       2 UNK         0.5016 
     61 O          33.7660  -50.8886  -49.8679 O.2       2 UNK        -0.5319 
     62 CA         35.5915  -49.3310  -49.9741 C.3       2 UNK         0.0286 
     63 CB         36.8608  -50.0722  -50.4234 C.3       2 UNK        -0.1963 
     64 N          35.6894  -47.9168  -50.3604 N.am      2 UNK        -0.4790 
     65 C          34.8290  -46.9581  -49.9863 C.2       1 UNK         0.5024 
     66 O          33.8997  -47.1524  -49.2005 O.2       1 UNK        -0.4888 
     67 H67        38.0425  -43.7639  -48.5206 H         1 UNK         0.0892 
     68 H68        39.1148  -45.1580  -48.6666 H         1 UNK         0.0892 
     69 H69        39.1864  -43.8592  -49.8607 H         1 UNK         0.0892 
     70 H70        35.9462  -44.2743  -49.1246 H         1 UNK         0.3107 
     71 H71        35.3755  -45.6726  -51.6089 H         1 UNK         0.0773 
     72 H72        33.2790  -44.7040  -49.6027 H         1 UNK         0.0680 
     73 H73        34.1168  -43.5950  -50.6361 H         1 UNK         0.0680 
     74 H74        32.6249  -42.6635  -52.3969 H         1 UNK         0.0650 
     75 H75        33.9722  -43.4429  -53.1895 H         1 UNK         0.0650 
     76 H76        33.7800  -44.1567  -55.4789 H         1 UNK         0.1397 
     77 H77        30.1251  -43.4037  -57.5736 H         1 UNK         0.1363 
     78 H78        30.2510  -43.0667  -53.3008 H         1 UNK         0.1355 
     79 H79        28.3870  -41.9473  -56.0340 H         1 UNK         0.0707 
     80 H80        28.2330  -42.5587  -54.4118 H         1 UNK         0.0707 
     81 H81        28.2035  -44.7190  -58.2009 H         1 UNK         0.1034 
     82 H82        27.8801  -43.0117  -58.0440 H         1 UNK         0.1034 
     83 H83        25.4434  -43.4310  -58.0484 H         1 UNK         0.0482 
     84 H84        25.4759  -45.6887  -60.5814 H         1 UNK         0.3460 
     85 H85        25.8573  -44.5694  -61.8672 H         1 UNK         0.3460 
     86 H86        26.1861  -46.2194  -57.8683 H         1 UNK         0.2989 
     87 H87        22.8698  -47.0995  -57.1403 H         1 UNK         0.0559 
     88 H88        23.1498  -49.0616  -58.6840 H         1 UNK         0.0848 
     89 H89        24.2774  -48.1198  -59.6577 H         1 UNK         0.0848 
     90 H90        22.6035  -47.6149  -59.5168 H         1 UNK         0.0848 
     91 H91        25.3873  -48.5523  -57.3775 H         1 UNK         0.3144 
     92 H92        26.9794  -47.4559  -54.9130 H         1 UNK         0.0727 
     93 H93        26.7778  -49.0691  -52.9667 H         1 UNK         0.0790 
     94 H94        25.0784  -49.2995  -53.3707 H         1 UNK         0.0790 
     95 H95        25.6581  -47.7207  -52.8650 H         1 UNK         0.0790 
     96 H96        27.7794  -49.1881  -55.9510 H         1 UNK         0.3215 
     97 H97        28.0113  -51.7922  -56.1151 H         1 UNK         0.0863 
     98 H98        27.0836  -53.4449  -57.7508 H         1 UNK         0.0808 
     99 H99        25.5514  -52.5727  -57.7743 H         1 UNK         0.0808 
    100 H100       26.0998  -53.3534  -56.2994 H         1 UNK         0.0808 
    101 H101       28.7465  -50.7697  -57.9503 H         1 UNK         0.3118 
    102 H102       28.2900  -50.1868  -60.6072 H         1 UNK         0.0546 
    103 H103       26.6251  -47.6525  -60.1614 H         1 UNK         0.0828 
    104 H104       26.2617  -48.9431  -61.2973 H         1 UNK         0.0828 
    105 H105       27.6870  -47.9469  -61.5346 H         1 UNK         0.0828 
    106 H106       29.9629  -49.0788  -59.6821 H         1 UNK         0.3005 
    107 H107       31.0995  -48.2220  -57.9572 H         1 UNK         0.1257 
    108 H108       31.0337  -46.5970  -59.8650 H         1 UNK         0.0775 
    109 H109       30.4376  -45.3553  -58.8035 H         1 UNK         0.0775 
    110 H110       33.7328  -43.7254  -57.9476 H         1 UNK         0.0840 
    111 H111       32.2237  -43.5663  -58.8014 H         1 UNK         0.0840 
    112 H112       30.7990  -46.0114  -56.3051 H         1 UNK         0.2987 
    113 H113       31.2486  -46.4291  -54.1626 H         1 UNK         0.0785 
    114 H114       29.5291  -46.0719  -52.4753 H         1 UNK         0.0798 
    115 H115       28.5073  -47.3366  -53.1482 H         1 UNK         0.0798 
    116 H116       28.7875  -45.8486  -54.0471 H         1 UNK         0.0798 
    117 H117       30.3328  -48.7755  -52.6523 H         1 UNK         0.3079 
    118 H118       31.8600  -49.9909  -51.5642 H         1 UNK         0.0794 
    119 H119       31.7627  -51.4215  -53.6342 H         1 UNK         0.0786 
    120 H120       32.9574  -52.0444  -52.5057 H         1 UNK         0.0786 
    121 H121       33.4740  -51.1371  -53.9266 H         1 UNK         0.0786 
    122 H122       34.4232  -48.8531  -52.1900 H         1 UNK         0.3032 
    123 H123       35.5321  -49.3779  -48.8842 H         1 UNK         0.1094 
    124 H124       36.8241  -51.1219  -50.1282 H         1 UNK         0.0794 
    125 H125       36.9854  -50.0420  -51.5066 H         1 UNK         0.0794 
    126 H126       37.7536  -49.6406  -49.9702 H         1 UNK         0.0794 
    127 H127       36.4822  -47.6421  -50.9304 H         1 UNK         0.3016 
@<TRIPOS>BOND
     1    1    2 1    
     2    1   67 1    
     3    1   68 1    
     4    1   69 1    
     5    2    3 2    
     6    2    4 am   BACKBONE|DICT|INTERRES
     7    4    5 1    
     8    4   70 1    
     9    5    6 1    
    10    5   65 1    
    11    5   71 1    
    12    6    7 1    
    13    6   72 1    
    14    6   73 1    
    15    7    8 1    
    16    8    9 1    
    17    8   74 1    
    18    8   75 1    
    19    9   10 ar   
    20    9   14 ar   
    21   10   11 ar   
    22   10   76 1    
    23   11   12 ar   
    24   11   48 1    
    25   12   13 ar   
    26   12   77 1    
    27   13   14 ar   
    28   13   15 1    
    29   14   78 1    
    30   15   16 1    
    31   15   79 1    
    32   15   80 1    
    33   16   17 1    
    34   17   18 1    
    35   17   81 1    
    36   17   82 1    
    37   18   19 1    
    38   18   22 1    
    39   18   83 1    
    40   19   20 am   BACKBONE|DICT|INTERRES
    41   19   21 2    
    42   20   84 1    
    43   20   85 1    
    44   22   23 am   BACKBONE|DICT|INTERRES
    45   22   86 1    
    46   23   24 2    
    47   23   25 1    
    48   25   26 1    
    49   25   27 1    
    50   25   87 1    
    51   26   88 1    
    52   26   89 1    
    53   26   90 1    
    54   27   28 am   BACKBONE|DICT|INTERRES
    55   27   91 1    
    56   28   29 2    
    57   28   30 1    
    58   30   31 1    
    59   30   32 1    
    60   30   92 1    
    61   31   93 1    
    62   31   94 1    
    63   31   95 1    
    64   32   33 am   BACKBONE|DICT|INTERRES
    65   32   96 1    
    66   33   34 2    
    67   33   35 1    
    68   35   36 1    
    69   35   37 1    
    70   35   97 1    
    71   36   98 1    
    72   36   99 1    
    73   36  100 1    
    74   37   38 am   BACKBONE|DICT|INTERRES
    75   37  101 1    
    76   38   39 2    
    77   38   40 1    
    78   40   41 1    
    79   40   42 1    
    80   40  102 1    
    81   41  103 1    
    82   41  104 1    
    83   41  105 1    
    84   42   43 am   BACKBONE|DICT|INTERRES
    85   42  106 1    
    86   43   44 2    
    87   43   45 1    
    88   45   46 1    
    89   45   49 1    
    90   45  107 1    
    91   46   47 1    
    92   46  108 1    
    93   46  109 1    
    94   47   48 1    
    95   48  110 1    
    96   48  111 1    
    97   49   50 am   BACKBONE|DICT|INTERRES
    98   49  112 1    
    99   50   51 2    
   100   50   52 1    
   101   52   53 1    
   102   52   54 1    
   103   52  113 1    
   104   53  114 1    
   105   53  115 1    
   106   53  116 1    
   107   54   55 am   BACKBONE|DICT|INTERRES
   108   54  117 1    
   109   55   56 2    
   110   55   57 1    
   111   57   58 1    
   112   57   59 1    
   113   57  118 1    
   114   58  119 1    
   115   58  120 1    
   116   58  121 1    
   117   59   60 am   BACKBONE|DICT|INTERRES
   118   59  122 1    
   119   60   61 2    
   120   60   62 1    
   121   62   63 1    
   122   62   64 1    
   123   62  123 1    
   124   63  124 1    
   125   63  125 1    
   126   63  126 1    
   127   64   65 am   BACKBONE|DICT|INTERRES
   128   64  127 1    
   129   65   66 2    
@<TRIPOS>SUBSTRUCTURE
     1 UNK         1 GROUP             0       ****    0 ROOT    
