@<TRIPOS>MOLECULE
3R134
127   129    1
SMALL
USER_CHARGES


@<TRIPOS>ATOM
      1 CA         29.5970  -43.4821  -51.7024 C.3       0 UNK        -0.1968 
      2 C          31.1098  -43.5517  -51.5688 C.2       0 UNK         0.4852 
      3 O          31.6216  -43.4874  -50.4500 O.2       0 UNK        -0.5359 
      4 N          31.8287  -43.6601  -52.6952 N.am      1 UNK        -0.4300 
      5 CA         33.2964  -43.6614  -52.7402 C.3       1 UNK         0.0863 
      6 C6         33.8633  -43.3089  -54.1385 C.3       11 UNK        -0.0953 
      7 S7         33.1843  -41.7296  -54.7654 S.3       11 UNK        -0.2369 
      8 C8         32.7408  -42.1065  -56.4966 C.3       11 UNK         0.0226 
      9 C9         31.9260  -43.3844  -56.6616 C.ar      11 UNK        -0.0699 
     10 C10        32.3610  -44.3686  -57.5555 C.ar      11 UNK        -0.0804 
     11 C11        31.6486  -45.5608  -57.7020 C.ar      11 UNK        -0.0871 
     12 C12        30.4966  -45.7668  -56.9411 C.ar      11 UNK        -0.1008 
     13 C13        30.0422  -44.7893  -56.0543 C.ar      11 UNK        -0.0735 
     14 C14        30.7515  -43.5910  -55.9286 C.ar      11 UNK        -0.0945 
     15 C15        28.7689  -45.0275  -55.2617 C.3       11 UNK         0.0169 
     16 S16        29.0319  -46.2262  -53.9259 S.3       11 UNK        -0.2669 
     17 C17        27.4346  -46.1330  -53.0491 C.3       11 UNK        -0.0850 
     18 CA         26.3795  -47.1397  -53.6037 C.3       10 UNK         0.0855 
     19 C          25.3097  -47.5766  -52.5518 C.2       10 UNK         0.5543 
     20 N          25.7189  -47.9065  -51.3334 N.am      10 UNK        -0.7343 
     21 O          24.1168  -47.6809  -52.8330 O.2       10 UNK        -0.5027 
     22 N          25.8001  -46.7048  -54.8899 N.am      10 UNK        -0.4495 
     23 C          24.9759  -45.6634  -55.0779 C.2       10 UNK         0.4903 
     24 O          24.7075  -44.8305  -54.2094 O.2       10 UNK        -0.4860 
     25 CA         24.3253  -45.5585  -56.4718 C.3       9 UNK         0.0227 
     26 CB         23.2410  -44.4619  -56.5506 C.3       9 UNK        -0.1964 
     27 N          25.3008  -45.4027  -57.5551 N.am      9 UNK        -0.4231 
     28 C          26.1785  -44.4074  -57.7441 C.2       9 UNK         0.5014 
     29 O          26.2910  -43.4362  -56.9948 O.2       9 UNK        -0.5270 
     30 CA         27.0918  -44.5311  -58.9830 C.3       8 UNK         0.0284 
     31 CB         28.1908  -43.4527  -59.0341 C.3       8 UNK        -0.1977 
     32 N          27.7099  -45.8580  -59.0983 N.am      8 UNK        -0.4342 
     33 C          27.1016  -46.9383  -59.6048 C.2       8 UNK         0.5039 
     34 O          25.9321  -46.9361  -59.9919 O.2       8 UNK        -0.5547 
     35 CA         27.9086  -48.2450  -59.6614 C.3       7 UNK         0.0281 
     36 CB         28.9416  -48.1938  -60.7993 C.3       7 UNK        -0.1963 
     37 N          28.5721  -48.6363  -58.4124 N.am      7 UNK        -0.4444 
     38 C          28.0086  -48.7531  -57.2031 C.2       7 UNK         0.5104 
     39 O          26.8692  -48.3680  -56.9385 O.2       7 UNK        -0.5100 
     40 CA         28.8208  -49.4522  -56.0908 C.3       6 UNK         0.0396 
     41 CB         28.4179  -50.9365  -56.0226 C.3       6 UNK        -0.1801 
     42 N          30.2891  -49.3207  -56.1108 N.am      6 UNK        -0.4747 
     43 C          31.1689  -49.7177  -57.0451 C.2       6 UNK         0.5012 
     44 O          30.8516  -50.1580  -58.1499 O.2       6 UNK        -0.5003 
     45 CA         32.6563  -49.6401  -56.6595 C.3       5 UNK         0.0782 
     46 C46        33.1658  -48.1817  -56.5443 C.3       11 UNK        -0.0868 
     47 S47        33.6445  -47.4582  -58.1479 S.3       11 UNK        -0.2515 
     48 C48        32.1177  -46.6233  -58.6855 C.3       11 UNK         0.0199 
     49 N          32.8738  -50.3888  -55.4211 N.am      5 UNK        -0.4607 
     50 C          33.0280  -51.7197  -55.3546 C.2       4 UNK         0.5031 
     51 O          33.0707  -52.4495  -56.3451 O.2       4 UNK        -0.5119 
     52 CA         33.1780  -52.3553  -53.9587 C.3       4 UNK         0.0263 
     53 CB         34.6578  -52.6496  -53.6625 C.3       4 UNK        -0.1967 
     54 N          32.6354  -51.5181  -52.8882 N.am      4 UNK        -0.4237 
     55 C          31.3295  -51.3525  -52.6335 C.2       3 UNK         0.4908 
     56 O          30.4396  -52.0001  -53.1824 O.2       3 UNK        -0.5102 
     57 CA         30.9483  -50.2656  -51.6099 C.3       3 UNK         0.0241 
     58 CB         30.6198  -50.8981  -50.2477 C.3       3 UNK        -0.1971 
     59 N          31.9803  -49.2358  -51.4317 N.am      3 UNK        -0.4139 
     60 C          32.3587  -48.3695  -52.3809 C.2       2 UNK         0.5016 
     61 O          31.8748  -48.3382  -53.5156 O.2       2 UNK        -0.5319 
     62 CA         33.5279  -47.4442  -52.0388 C.3       2 UNK         0.0286 
     63 CB         34.8374  -47.9917  -52.6412 C.3       2 UNK        -0.1963 
     64 N          33.2285  -46.1115  -52.5522 N.am      2 UNK        -0.4790 
     65 C          33.8785  -44.9885  -52.2173 C.2       1 UNK         0.5024 
     66 O          34.8774  -44.9654  -51.4965 O.2       1 UNK        -0.4888 
     67 H67        29.2849  -43.3747  -52.7398 H         1 UNK         0.0892 
     68 H68        29.1448  -44.3854  -51.2953 H         1 UNK         0.0892 
     69 H69        29.2100  -42.6281  -51.1473 H         1 UNK         0.0892 
     70 H70        31.3648  -43.7230  -53.5895 H         1 UNK         0.3107 
     71 H71        33.6384  -42.8817  -52.0554 H         1 UNK         0.0773 
     72 H72        33.6704  -44.1175  -54.8443 H         1 UNK         0.0680 
     73 H73        34.9490  -43.2075  -54.0904 H         1 UNK         0.0680 
     74 H74        33.6631  -42.1608  -57.0771 H         1 UNK         0.0650 
     75 H75        32.1712  -41.2700  -56.9031 H         1 UNK         0.0650 
     76 H76        33.2619  -44.2149  -58.1339 H         1 UNK         0.1397 
     77 H77        29.9510  -46.6922  -57.0288 H         1 UNK         0.1363 
     78 H78        30.3966  -42.8192  -55.2596 H         1 UNK         0.1355 
     79 H79        28.0091  -45.4281  -55.9288 H         1 UNK         0.0707 
     80 H80        28.3752  -44.0913  -54.8639 H         1 UNK         0.0707 
     81 H81        27.6684  -46.3346  -52.0039 H         1 UNK         0.1034 
     82 H82        27.0553  -45.1107  -53.0620 H         1 UNK         0.1034 
     83 H83        26.8954  -48.0709  -53.8342 H         1 UNK         0.0482 
     84 H84        26.6932  -47.8825  -51.0790 H         1 UNK         0.3460 
     85 H85        25.0347  -48.2097  -50.6579 H         1 UNK         0.3460 
     86 H86        25.9915  -47.3222  -55.6757 H         1 UNK         0.2989 
     87 H87        23.8299  -46.5145  -56.6487 H         1 UNK         0.0559 
     88 H88        22.4640  -44.6291  -55.8036 H         1 UNK         0.0848 
     89 H89        22.7551  -44.4529  -57.5262 H         1 UNK         0.0848 
     90 H90        23.6525  -43.4680  -56.3718 H         1 UNK         0.0848 
     91 H91        25.3206  -46.1503  -58.2436 H         1 UNK         0.3144 
     92 H92        26.4516  -44.3715  -59.8535 H         1 UNK         0.0727 
     93 H93        28.8558  -43.5070  -58.1740 H         1 UNK         0.0790 
     94 H94        27.7555  -42.4527  -59.0426 H         1 UNK         0.0790 
     95 H95        28.7989  -43.5459  -59.9339 H         1 UNK         0.0790 
     96 H96        28.6581  -45.9467  -58.7651 H         1 UNK         0.3215 
     97 H97        27.2005  -49.0432  -59.8933 H         1 UNK         0.0863 
     98 H98        29.4551  -49.1488  -60.9138 H         1 UNK         0.0808 
     99 H99        29.6962  -47.4253  -60.6317 H         1 UNK         0.0808 
    100 H100       28.4597  -47.9716  -61.7526 H         1 UNK         0.0808 
    101 H101       29.4844  -49.0792  -58.5078 H         1 UNK         0.3118 
    102 H102       28.5144  -48.9902  -55.1534 H         1 UNK         0.0546 
    103 H103       28.7150  -51.4799  -56.9202 H         1 UNK         0.0828 
    104 H104       27.3373  -51.0458  -55.9197 H         1 UNK         0.0828 
    105 H105       28.8719  -51.4329  -55.1670 H         1 UNK         0.0828 
    106 H106       30.6824  -48.9377  -55.2558 H         1 UNK         0.3005 
    107 H107       33.2244  -50.1345  -57.4517 H         1 UNK         0.1257 
    108 H108       32.4661  -47.5360  -56.0127 H         1 UNK         0.0775 
    109 H109       34.0743  -48.1661  -55.9422 H         1 UNK         0.0775 
    110 H110       32.2962  -46.1576  -59.6558 H         1 UNK         0.0840 
    111 H111       31.3423  -47.3709  -58.8501 H         1 UNK         0.0840 
    112 H112       32.7746  -49.8567  -54.5651 H         1 UNK         0.2987 
    113 H113       32.6348  -53.3029  -53.9682 H         1 UNK         0.0785 
    114 H114       35.0864  -53.2999  -54.4265 H         1 UNK         0.0798 
    115 H115       34.7781  -53.1566  -52.7048 H         1 UNK         0.0798 
    116 H116       35.2557  -51.7376  -53.6389 H         1 UNK         0.0798 
    117 H117       33.2976  -50.9716  -52.3586 H         1 UNK         0.3079 
    118 H118       30.0487  -49.7727  -51.9857 H         1 UNK         0.0794 
    119 H119       30.2647  -50.1506  -49.5380 H         1 UNK         0.0786 
    120 H120       31.4884  -51.3926  -49.8108 H         1 UNK         0.0786 
    121 H121       29.8331  -51.6477  -50.3453 H         1 UNK         0.0786 
    122 H122       32.4338  -49.2052  -50.5293 H         1 UNK         0.3032 
    123 H123       33.6275  -47.3817  -50.9527 H         1 UNK         0.1094 
    124 H124       34.8034  -48.0082  -53.7300 H         1 UNK         0.0794 
    125 H125       35.6979  -47.3915  -52.3464 H         1 UNK         0.0794 
    126 H126       35.0314  -49.0104  -52.3038 H         1 UNK         0.0794 
    127 H127       32.4079  -46.0616  -53.1438 H         1 UNK         0.3016 
@<TRIPOS>BOND
     1    1    2 1    
     2    1   67 1    
     3    1   68 1    
     4    1   69 1    
     5    2    3 2    
     6    2    4 am   BACKBONE|DICT|INTERRES
     7    4    5 1    
     8    4   70 1    
     9    5    6 1    
    10    5   65 1    
    11    5   71 1    
    12    6    7 1    
    13    6   72 1    
    14    6   73 1    
    15    7    8 1    
    16    8    9 1    
    17    8   74 1    
    18    8   75 1    
    19    9   10 ar   
    20    9   14 ar   
    21   10   11 ar   
    22   10   76 1    
    23   11   12 ar   
    24   11   48 1    
    25   12   13 ar   
    26   12   77 1    
    27   13   14 ar   
    28   13   15 1    
    29   14   78 1    
    30   15   16 1    
    31   15   79 1    
    32   15   80 1    
    33   16   17 1    
    34   17   18 1    
    35   17   81 1    
    36   17   82 1    
    37   18   19 1    
    38   18   22 1    
    39   18   83 1    
    40   19   20 am   BACKBONE|DICT|INTERRES
    41   19   21 2    
    42   20   84 1    
    43   20   85 1    
    44   22   23 am   BACKBONE|DICT|INTERRES
    45   22   86 1    
    46   23   24 2    
    47   23   25 1    
    48   25   26 1    
    49   25   27 1    
    50   25   87 1    
    51   26   88 1    
    52   26   89 1    
    53   26   90 1    
    54   27   28 am   BACKBONE|DICT|INTERRES
    55   27   91 1    
    56   28   29 2    
    57   28   30 1    
    58   30   31 1    
    59   30   32 1    
    60   30   92 1    
    61   31   93 1    
    62   31   94 1    
    63   31   95 1    
    64   32   33 am   BACKBONE|DICT|INTERRES
    65   32   96 1    
    66   33   34 2    
    67   33   35 1    
    68   35   36 1    
    69   35   37 1    
    70   35   97 1    
    71   36   98 1    
    72   36   99 1    
    73   36  100 1    
    74   37   38 am   BACKBONE|DICT|INTERRES
    75   37  101 1    
    76   38   39 2    
    77   38   40 1    
    78   40   41 1    
    79   40   42 1    
    80   40  102 1    
    81   41  103 1    
    82   41  104 1    
    83   41  105 1    
    84   42   43 am   BACKBONE|DICT|INTERRES
    85   42  106 1    
    86   43   44 2    
    87   43   45 1    
    88   45   46 1    
    89   45   49 1    
    90   45  107 1    
    91   46   47 1    
    92   46  108 1    
    93   46  109 1    
    94   47   48 1    
    95   48  110 1    
    96   48  111 1    
    97   49   50 am   BACKBONE|DICT|INTERRES
    98   49  112 1    
    99   50   51 2    
   100   50   52 1    
   101   52   53 1    
   102   52   54 1    
   103   52  113 1    
   104   53  114 1    
   105   53  115 1    
   106   53  116 1    
   107   54   55 am   BACKBONE|DICT|INTERRES
   108   54  117 1    
   109   55   56 2    
   110   55   57 1    
   111   57   58 1    
   112   57   59 1    
   113   57  118 1    
   114   58  119 1    
   115   58  120 1    
   116   58  121 1    
   117   59   60 am   BACKBONE|DICT|INTERRES
   118   59  122 1    
   119   60   61 2    
   120   60   62 1    
   121   62   63 1    
   122   62   64 1    
   123   62  123 1    
   124   63  124 1    
   125   63  125 1    
   126   63  126 1    
   127   64   65 am   BACKBONE|DICT|INTERRES
   128   64  127 1    
   129   65   66 2    
@<TRIPOS>SUBSTRUCTURE
     1 UNK         1 GROUP             0       ****    0 ROOT    
