@<TRIPOS>MOLECULE
3R134
127   129    1
SMALL
USER_CHARGES


@<TRIPOS>ATOM
      1 CA         35.0037  -44.2676  -58.4133 C.3       0 UNK        -0.1968 
      2 C          33.8556  -45.1996  -58.0550 C.2       0 UNK         0.4852 
      3 O          32.7056  -44.9055  -58.3826 O.2       0 UNK        -0.5359 
      4 N          34.1598  -46.3146  -57.3847 N.am      1 UNK        -0.4300 
      5 CA         33.2062  -47.3333  -56.9535 C.3       1 UNK         0.0863 
      6 C6         32.3846  -46.9088  -55.7049 C.3       11 UNK        -0.0953 
      7 S7         33.3859  -46.5058  -54.2274 S.3       11 UNK        -0.2369 
      8 C8         33.3095  -44.6874  -54.2143 C.3       11 UNK         0.0226 
      9 C9         31.9715  -44.1712  -53.7042 C.ar      11 UNK        -0.0699 
     10 C10        31.7383  -44.0804  -52.3289 C.ar      11 UNK        -0.0804 
     11 C11        30.5236  -43.5857  -51.8430 C.ar      11 UNK        -0.0871 
     12 C12        29.5396  -43.1745  -52.7482 C.ar      11 UNK        -0.1008 
     13 C13        29.7690  -43.2410  -54.1266 C.ar      11 UNK        -0.0735 
     14 C14        30.9835  -43.7470  -54.5991 C.ar      11 UNK        -0.0945 
     15 C15        28.7340  -42.6959  -55.0992 C.3       11 UNK         0.0169 
     16 S16        27.5350  -43.9566  -55.6316 S.3       11 UNK        -0.2669 
     17 C17        26.2859  -42.8502  -56.3703 C.3       11 UNK        -0.0850 
     18 CA         25.2218  -43.5645  -57.2445 C.3       10 UNK         0.0855 
     19 C          24.1137  -42.5428  -57.6312 C.2       10 UNK         0.5543 
     20 N          23.0005  -42.5301  -56.9112 N.am      10 UNK        -0.7343 
     21 O          24.2813  -41.7324  -58.5409 O.2       10 UNK        -0.5027 
     22 N          25.8365  -44.2333  -58.4053 N.am      10 UNK        -0.4495 
     23 C          25.1824  -44.8579  -59.3982 C.2       10 UNK         0.4903 
     24 O          23.9600  -44.9992  -59.4471 O.2       10 UNK        -0.4860 
     25 CA         26.0446  -45.4541  -60.5276 C.3       9 UNK         0.0227 
     26 CB         26.4031  -44.3747  -61.5623 C.3       9 UNK        -0.1964 
     27 N          27.2681  -46.0976  -60.0392 N.am      9 UNK        -0.4231 
     28 C          27.2853  -47.1811  -59.2510 C.2       9 UNK         0.5014 
     29 O          26.2689  -47.8007  -58.9222 O.2       9 UNK        -0.5270 
     30 CA         28.6540  -47.6366  -58.7198 C.3       8 UNK         0.0284 
     31 CB         29.4830  -46.4435  -58.1974 C.3       8 UNK        -0.1977 
     32 N          28.3904  -48.5821  -57.6418 N.am      8 UNK        -0.4342 
     33 C          29.2507  -49.3463  -56.9641 C.2       8 UNK         0.5039 
     34 O          30.4529  -49.4377  -57.2228 O.2       8 UNK        -0.5547 
     35 CA         28.6477  -50.0735  -55.7481 C.3       7 UNK         0.0281 
     36 CB         29.6528  -50.9811  -55.0165 C.3       7 UNK        -0.1963 
     37 N          28.1206  -49.0692  -54.8182 N.am      7 UNK        -0.4444 
     38 C          26.8707  -48.5797  -54.8601 C.2       7 UNK         0.5104 
     39 O          26.0023  -49.0370  -55.6039 O.2       7 UNK        -0.5100 
     40 CA         26.5337  -47.3324  -54.0167 C.3       6 UNK         0.0396 
     41 CB         25.2015  -47.4827  -53.2522 C.3       6 UNK        -0.1801 
     42 N          27.6203  -46.8723  -53.1432 N.am      6 UNK        -0.4747 
     43 C          28.0887  -47.4811  -52.0455 C.2       6 UNK         0.5012 
     44 O          27.6058  -48.5060  -51.5587 O.2       6 UNK        -0.5003 
     45 CA         29.3298  -46.8438  -51.3957 C.3       5 UNK         0.0782 
     46 C46        28.9252  -45.9362  -50.2101 C.3       11 UNK        -0.0868 
     47 S47        30.3594  -45.0735  -49.4875 S.3       11 UNK        -0.2515 
     48 C48        30.2895  -43.4647  -50.3416 C.3       11 UNK         0.0199 
     49 N          30.2947  -47.8779  -51.0125 N.am      5 UNK        -0.4607 
     50 C          30.9433  -48.6496  -51.8907 C.2       4 UNK         0.5031 
     51 O          30.8145  -48.5531  -53.1124 O.2       4 UNK        -0.5119 
     52 CA         31.8591  -49.7282  -51.3119 C.3       4 UNK         0.0263 
     53 CB         31.0941  -51.0530  -51.1333 C.3       4 UNK        -0.1967 
     54 N          32.9920  -49.9126  -52.2140 N.am      4 UNK        -0.4237 
     55 C          34.1638  -50.4614  -51.8739 C.2       3 UNK         0.4908 
     56 O          34.4012  -50.8921  -50.7433 O.2       3 UNK        -0.5102 
     57 CA         35.2719  -50.5161  -52.9474 C.3       3 UNK         0.0241 
     58 CB         36.2402  -51.7000  -52.7341 C.3       3 UNK        -0.1971 
     59 N          34.7983  -50.4885  -54.3373 N.am      3 UNK        -0.4139 
     60 C          34.0143  -51.3753  -54.9679 C.2       2 UNK         0.5016 
     61 O          33.4973  -52.3504  -54.4204 O.2       2 UNK        -0.5319 
     62 CA         33.7775  -51.1134  -56.4708 C.3       2 UNK         0.0286 
     63 CB         32.8562  -52.1561  -57.1288 C.3       2 UNK        -0.1963 
     64 N          33.2407  -49.7718  -56.7223 N.am      2 UNK        -0.4790 
     65 C          33.9669  -48.6478  -56.7341 C.2       1 UNK         0.5024 
     66 O          35.1880  -48.6270  -56.5472 O.2       1 UNK        -0.4888 
     67 H67        35.9621  -44.6457  -58.0575 H         1 UNK         0.0892 
     68 H68        35.0662  -44.1476  -59.4945 H         1 UNK         0.0892 
     69 H69        34.8411  -43.2858  -57.9695 H         1 UNK         0.0892 
     70 H70        35.1202  -46.5452  -57.1595 H         1 UNK         0.3107 
     71 H71        32.5225  -47.5168  -57.7838 H         1 UNK         0.0773 
     72 H72        31.6835  -47.6984  -55.4329 H         1 UNK         0.0680 
     73 H73        31.7589  -46.0548  -55.9571 H         1 UNK         0.0680 
     74 H74        33.5160  -44.3023  -55.2133 H         1 UNK         0.0650 
     75 H75        34.1096  -44.3113  -53.5753 H         1 UNK         0.0650 
     76 H76        32.5041  -44.3971  -51.6338 H         1 UNK         0.1397 
     77 H77        28.6034  -42.7747  -52.3825 H         1 UNK         0.1363 
     78 H78        31.1669  -43.7898  -55.6644 H         1 UNK         0.1355 
     79 H79        28.2020  -41.8657  -54.6314 H         1 UNK         0.0707 
     80 H80        29.2290  -42.2810  -55.9787 H         1 UNK         0.0707 
     81 H81        25.8023  -42.3221  -55.5454 H         1 UNK         0.1034 
     82 H82        26.7957  -42.0837  -56.9583 H         1 UNK         0.1034 
     83 H83        24.7618  -44.3519  -56.6442 H         1 UNK         0.0482 
     84 H84        22.8595  -43.1834  -56.1562 H         1 UNK         0.3460 
     85 H85        22.2791  -41.8627  -57.1360 H         1 UNK         0.3460 
     86 H86        26.8423  -44.1822  -58.4529 H         1 UNK         0.2989 
     87 H87        25.4475  -46.2174  -61.0316 H         1 UNK         0.0559 
     88 H88        25.5033  -43.8967  -61.9526 H         1 UNK         0.0848 
     89 H89        26.9355  -44.8001  -62.4132 H         1 UNK         0.0848 
     90 H90        27.0266  -43.5896  -61.1327 H         1 UNK         0.0848 
     91 H91        28.1445  -45.6553  -60.2761 H         1 UNK         0.3144 
     92 H92        29.1912  -48.1492  -59.5196 H         1 UNK         0.0727 
     93 H93        30.4072  -46.7766  -57.7365 H         1 UNK         0.0790 
     94 H94        28.9365  -45.8686  -57.4498 H         1 UNK         0.0790 
     95 H95        29.7689  -45.7626  -58.9994 H         1 UNK         0.0790 
     96 H96        27.4049  -48.6246  -57.3943 H         1 UNK         0.3215 
     97 H97        27.8361  -50.7101  -56.1073 H         1 UNK         0.0863 
     98 H98        29.2465  -51.3426  -54.0721 H         1 UNK         0.0808 
     99 H99        30.5946  -50.4748  -54.8047 H         1 UNK         0.0808 
    100 H100       29.8819  -51.8576  -55.6210 H         1 UNK         0.0808 
    101 H101       28.8004  -48.6331  -54.2066 H         1 UNK         0.3118 
    102 H102       26.3895  -46.5309  -54.7415 H         1 UNK         0.0546 
    103 H103       24.3728  -47.6391  -53.9438 H         1 UNK         0.0828 
    104 H104       24.9722  -46.5886  -52.6728 H         1 UNK         0.0828 
    105 H105       25.2129  -48.3336  -52.5711 H         1 UNK         0.0828 
    106 H106       28.0896  -46.0349  -53.4644 H         1 UNK         0.3005 
    107 H107       29.8190  -46.2268  -52.1522 H         1 UNK         0.1257 
    108 H108       28.4493  -46.5242  -49.4229 H         1 UNK         0.0775 
    109 H109       28.1867  -45.1952  -50.5229 H         1 UNK         0.0775 
    110 H110       29.3309  -42.9883  -50.1299 H         1 UNK         0.0840 
    111 H111       31.0531  -42.8104  -49.9185 H         1 UNK         0.0840 
    112 H112       30.4254  -48.0233  -50.0225 H         1 UNK         0.2987 
    113 H113       32.2284  -49.3858  -50.3426 H         1 UNK         0.0785 
    114 H114       31.7138  -51.8100  -50.6527 H         1 UNK         0.0798 
    115 H115       30.7618  -51.4540  -52.0913 H         1 UNK         0.0798 
    116 H116       30.2093  -50.9155  -50.5104 H         1 UNK         0.0798 
    117 H117       32.8542  -49.5413  -53.1460 H         1 UNK         0.3079 
    118 H118       35.8472  -49.5985  -52.8160 H         1 UNK         0.0794 
    119 H119       36.7203  -51.6466  -51.7561 H         1 UNK         0.0786 
    120 H120       37.0345  -51.7031  -53.4806 H         1 UNK         0.0786 
    121 H121       35.7228  -52.6584  -52.7903 H         1 UNK         0.0786 
    122 H122       35.1404  -49.7151  -54.9008 H         1 UNK         0.3032 
    123 H123       34.7528  -51.1960  -56.9565 H         1 UNK         0.1094 
    124 H124       32.7630  -51.9816  -58.2007 H         1 UNK         0.0794 
    125 H125       33.2487  -53.1654  -56.9981 H         1 UNK         0.0794 
    126 H126       31.8559  -52.1361  -56.7005 H         1 UNK         0.0794 
    127 H127       32.2317  -49.7020  -56.8672 H         1 UNK         0.3016 
@<TRIPOS>BOND
     1    1    2 1    
     2    1   67 1    
     3    1   68 1    
     4    1   69 1    
     5    2    3 2    
     6    2    4 am   BACKBONE|DICT|INTERRES
     7    4    5 1    
     8    4   70 1    
     9    5    6 1    
    10    5   65 1    
    11    5   71 1    
    12    6    7 1    
    13    6   72 1    
    14    6   73 1    
    15    7    8 1    
    16    8    9 1    
    17    8   74 1    
    18    8   75 1    
    19    9   10 ar   
    20    9   14 ar   
    21   10   11 ar   
    22   10   76 1    
    23   11   12 ar   
    24   11   48 1    
    25   12   13 ar   
    26   12   77 1    
    27   13   14 ar   
    28   13   15 1    
    29   14   78 1    
    30   15   16 1    
    31   15   79 1    
    32   15   80 1    
    33   16   17 1    
    34   17   18 1    
    35   17   81 1    
    36   17   82 1    
    37   18   19 1    
    38   18   22 1    
    39   18   83 1    
    40   19   20 am   BACKBONE|DICT|INTERRES
    41   19   21 2    
    42   20   84 1    
    43   20   85 1    
    44   22   23 am   BACKBONE|DICT|INTERRES
    45   22   86 1    
    46   23   24 2    
    47   23   25 1    
    48   25   26 1    
    49   25   27 1    
    50   25   87 1    
    51   26   88 1    
    52   26   89 1    
    53   26   90 1    
    54   27   28 am   BACKBONE|DICT|INTERRES
    55   27   91 1    
    56   28   29 2    
    57   28   30 1    
    58   30   31 1    
    59   30   32 1    
    60   30   92 1    
    61   31   93 1    
    62   31   94 1    
    63   31   95 1    
    64   32   33 am   BACKBONE|DICT|INTERRES
    65   32   96 1    
    66   33   34 2    
    67   33   35 1    
    68   35   36 1    
    69   35   37 1    
    70   35   97 1    
    71   36   98 1    
    72   36   99 1    
    73   36  100 1    
    74   37   38 am   BACKBONE|DICT|INTERRES
    75   37  101 1    
    76   38   39 2    
    77   38   40 1    
    78   40   41 1    
    79   40   42 1    
    80   40  102 1    
    81   41  103 1    
    82   41  104 1    
    83   41  105 1    
    84   42   43 am   BACKBONE|DICT|INTERRES
    85   42  106 1    
    86   43   44 2    
    87   43   45 1    
    88   45   46 1    
    89   45   49 1    
    90   45  107 1    
    91   46   47 1    
    92   46  108 1    
    93   46  109 1    
    94   47   48 1    
    95   48  110 1    
    96   48  111 1    
    97   49   50 am   BACKBONE|DICT|INTERRES
    98   49  112 1    
    99   50   51 2    
   100   50   52 1    
   101   52   53 1    
   102   52   54 1    
   103   52  113 1    
   104   53  114 1    
   105   53  115 1    
   106   53  116 1    
   107   54   55 am   BACKBONE|DICT|INTERRES
   108   54  117 1    
   109   55   56 2    
   110   55   57 1    
   111   57   58 1    
   112   57   59 1    
   113   57  118 1    
   114   58  119 1    
   115   58  120 1    
   116   58  121 1    
   117   59   60 am   BACKBONE|DICT|INTERRES
   118   59  122 1    
   119   60   61 2    
   120   60   62 1    
   121   62   63 1    
   122   62   64 1    
   123   62  123 1    
   124   63  124 1    
   125   63  125 1    
   126   63  126 1    
   127   64   65 am   BACKBONE|DICT|INTERRES
   128   64  127 1    
   129   65   66 2    
@<TRIPOS>SUBSTRUCTURE
     1 UNK         1 GROUP             0       ****    0 ROOT    
