@<TRIPOS>MOLECULE
3R134
127   129    1
SMALL
USER_CHARGES


@<TRIPOS>ATOM
      1 CA         33.1975  -42.5065  -58.1581 C.3       0 UNK        -0.1968 
      2 C          33.9710  -42.9035  -56.9092 C.2       0 UNK         0.4852 
      3 O          35.0888  -42.4281  -56.7069 O.2       0 UNK        -0.5359 
      4 N          33.3803  -43.7778  -56.0827 N.am      1 UNK        -0.4300 
      5 CA         33.9610  -44.3780  -54.8732 C.3       1 UNK         0.0863 
      6 C6         34.4161  -43.3227  -53.8254 C.3       11 UNK        -0.0953 
      7 S7         34.0936  -43.8398  -52.1056 S.3       11 UNK        -0.2369 
      8 C8         32.7539  -42.7074  -51.6181 C.3       11 UNK         0.0226 
      9 C9         31.3731  -43.2884  -51.8918 C.ar      11 UNK        -0.0699 
     10 C10        30.6281  -43.8232  -50.8371 C.ar      11 UNK        -0.0804 
     11 C11        29.3295  -44.2930  -51.0480 C.ar      11 UNK        -0.0871 
     12 C12        28.7799  -44.2398  -52.3308 C.ar      11 UNK        -0.1008 
     13 C13        29.5218  -43.7311  -53.4029 C.ar      11 UNK        -0.0735 
     14 C14        30.8171  -43.2504  -53.1756 C.ar      11 UNK        -0.0945 
     15 C15        28.8967  -43.6434  -54.7900 C.3       11 UNK         0.0169 
     16 S16        28.2608  -45.2450  -55.3831 S.3       11 UNK        -0.2669 
     17 C17        29.7737  -46.0429  -56.0228 C.3       11 UNK        -0.0850 
     18 CA         29.9640  -45.8222  -57.5506 C.3       10 UNK         0.0855 
     19 C          31.3072  -46.4306  -58.0435 C.2       10 UNK         0.5543 
     20 N          31.3319  -47.2804  -59.0618 N.am      10 UNK        -0.7343 
     21 O          32.3558  -46.1183  -57.4877 O.2       10 UNK        -0.5027 
     22 N          28.7893  -46.2610  -58.3202 N.am      10 UNK        -0.4495 
     23 C          28.4096  -45.7758  -59.5105 C.2       10 UNK         0.4903 
     24 O          29.0133  -44.8822  -60.1049 O.2       10 UNK        -0.4860 
     25 CA         27.1538  -46.3875  -60.1681 C.3       9 UNK         0.0227 
     26 CB         27.5570  -47.3509  -61.2967 C.3       9 UNK        -0.1964 
     27 N          26.2878  -47.0970  -59.2231 N.am      9 UNK        -0.4231 
     28 C          25.5512  -46.5105  -58.2701 C.2       9 UNK         0.5014 
     29 O          25.3814  -45.2922  -58.1996 O.2       9 UNK        -0.5270 
     30 CA         24.8968  -47.4165  -57.2047 C.3       8 UNK         0.0284 
     31 CB         23.3730  -47.4668  -57.4085 C.3       8 UNK        -0.1977 
     32 N          25.4019  -48.7945  -57.0896 N.am      8 UNK        -0.4342 
     33 C          26.6736  -49.1722  -56.8991 C.2       8 UNK         0.5039 
     34 O          27.6348  -48.4086  -56.9560 O.2       8 UNK        -0.5547 
     35 CA         26.9012  -50.6456  -56.5434 C.3       7 UNK         0.0281 
     36 CB         28.2984  -51.1386  -56.9627 C.3       7 UNK        -0.1963 
     37 N          26.7639  -50.7674  -55.0959 N.am      7 UNK        -0.4444 
     38 C          25.6091  -51.0162  -54.4638 C.2       7 UNK         0.5104 
     39 O          24.5598  -51.2896  -55.0484 O.2       7 UNK        -0.5100 
     40 CA         25.6074  -50.9324  -52.9258 C.3       6 UNK         0.0396 
     41 CB         25.7990  -52.3291  -52.3141 C.3       6 UNK        -0.1801 
     42 N          26.6231  -50.0268  -52.3832 N.am      6 UNK        -0.4747 
     43 C          26.6422  -48.6944  -52.5446 C.2       6 UNK         0.5012 
     44 O          25.7584  -48.0642  -53.1257 O.2       6 UNK        -0.5003 
     45 CA         27.8471  -47.9362  -51.9429 C.3       5 UNK         0.0782 
     46 C46        27.4473  -47.3740  -50.5532 C.3       11 UNK        -0.0868 
     47 S47        28.8149  -46.6009  -49.6202 S.3       11 UNK        -0.2515 
     48 C48        28.5183  -44.8252  -49.8778 C.3       11 UNK         0.0199 
     49 N          29.0930  -48.7166  -51.8800 N.am      5 UNK        -0.4607 
     50 C          29.6960  -49.3467  -52.8957 C.2       4 UNK         0.5031 
     51 O          29.1960  -49.4956  -54.0115 O.2       4 UNK        -0.5119 
     52 CA         31.0676  -49.9671  -52.5814 C.3       4 UNK         0.0263 
     53 CB         30.8903  -51.3243  -51.8799 C.3       4 UNK        -0.1967 
     54 N          31.8745  -50.1598  -53.7883 N.am      4 UNK        -0.4237 
     55 C          32.3743  -49.1723  -54.5420 C.2       3 UNK         0.4908 
     56 O          32.2790  -47.9726  -54.2660 O.2       3 UNK        -0.5102 
     57 CA         33.0866  -49.6145  -55.8278 C.3       3 UNK         0.0241 
     58 CB         32.0607  -50.0480  -56.8894 C.3       3 UNK        -0.1971 
     59 N          33.8686  -48.4981  -56.3512 N.am      3 UNK        -0.4139 
     60 C          35.2024  -48.4573  -56.4560 C.2       2 UNK         0.5016 
     61 O          35.9446  -49.4135  -56.2276 O.2       2 UNK        -0.5319 
     62 CA         35.8165  -47.1115  -56.8746 C.3       2 UNK         0.0286 
     63 CB         35.9682  -47.0398  -58.4025 C.3       2 UNK        -0.1963 
     64 N          34.9949  -45.9880  -56.4238 N.am      2 UNK        -0.4790 
     65 C          35.0417  -45.4388  -55.2018 C.2       1 UNK         0.5024 
     66 O          35.8809  -45.7546  -54.3566 O.2       1 UNK        -0.4888 
     67 H67        33.7737  -42.7538  -59.0494 H         1 UNK         0.0892 
     68 H68        32.2371  -43.0178  -58.2252 H         1 UNK         0.0892 
     69 H69        33.0114  -41.4329  -58.1588 H         1 UNK         0.0892 
     70 H70        32.5006  -44.1855  -56.3684 H         1 UNK         0.3107 
     71 H71        33.1367  -44.9477  -54.4399 H         1 UNK         0.0773 
     72 H72        35.4775  -43.0905  -53.9310 H         1 UNK         0.0680 
     73 H73        33.9053  -42.3756  -54.0009 H         1 UNK         0.0680 
     74 H74        32.8608  -41.7422  -52.1144 H         1 UNK         0.0650 
     75 H75        32.8633  -42.4992  -50.5526 H         1 UNK         0.0650 
     76 H76        31.0520  -43.8554  -49.8425 H         1 UNK         0.1397 
     77 H77        27.7701  -44.5895  -52.4974 H         1 UNK         0.1363 
     78 H78        31.3870  -42.8270  -53.9909 H         1 UNK         0.1355 
     79 H79        29.6025  -43.2423  -55.5190 H         1 UNK         0.0707 
     80 H80        28.0664  -42.9372  -54.7484 H         1 UNK         0.0707 
     81 H81        30.6329  -45.6777  -55.4572 H         1 UNK         0.1034 
     82 H82        29.7099  -47.1106  -55.8008 H         1 UNK         0.1034 
     83 H83        30.0664  -44.7464  -57.7029 H         1 UNK         0.0482 
     84 H84        30.4764  -47.5409  -59.5231 H         1 UNK         0.3460 
     85 H85        32.2119  -47.6551  -59.3752 H         1 UNK         0.3460 
     86 H86        28.2521  -47.0118  -57.8854 H         1 UNK         0.2989 
     87 H87        26.5811  -45.5679  -60.6070 H         1 UNK         0.0559 
     88 H88        28.1210  -48.2046  -60.9190 H         1 UNK         0.0848 
     89 H89        28.1834  -46.8476  -62.0348 H         1 UNK         0.0848 
     90 H90        26.6827  -47.7323  -61.8247 H         1 UNK         0.0848 
     91 H91        26.3790  -48.1016  -59.1868 H         1 UNK         0.3144 
     92 H92        25.0927  -46.9392  -56.2420 H         1 UNK         0.0727 
     93 H93        22.9490  -46.4627  -57.4575 H         1 UNK         0.0790 
     94 H94        22.8778  -47.9822  -56.5852 H         1 UNK         0.0790 
     95 H95        23.1082  -47.9776  -58.3352 H         1 UNK         0.0790 
     96 H96        24.6936  -49.5104  -56.9971 H         1 UNK         0.3215 
     97 H97        26.1572  -51.2585  -57.0569 H         1 UNK         0.0863 
     98 H98        29.0909  -50.5744  -56.4705 H         1 UNK         0.0808 
     99 H99        28.4431  -51.0317  -58.0383 H         1 UNK         0.0808 
    100 H100       28.4372  -52.1912  -56.7167 H         1 UNK         0.0808 
    101 H101       27.5625  -50.4458  -54.5537 H         1 UNK         0.3118 
    102 H102       24.6287  -50.5572  -52.6196 H         1 UNK         0.0546 
    103 H103       26.7721  -52.7517  -52.5678 H         1 UNK         0.0828 
    104 H104       25.0387  -53.0217  -52.6782 H         1 UNK         0.0828 
    105 H105       25.7156  -52.3029  -51.2275 H         1 UNK         0.0828 
    106 H106       27.3948  -50.4514  -51.8894 H         1 UNK         0.3005 
    107 H107       28.0481  -47.0964  -52.6116 H         1 UNK         0.1257 
    108 H108       27.0614  -48.1770  -49.9215 H         1 UNK         0.0775 
    109 H109       26.6260  -46.6624  -50.6553 H         1 UNK         0.0775 
    110 H110       27.4558  -44.6233  -50.0195 H         1 UNK         0.0840 
    111 H111       28.7997  -44.2932  -48.9676 H         1 UNK         0.0840 
    112 H112       29.5764  -48.6595  -50.9947 H         1 UNK         0.2987 
    113 H113       31.6099  -49.2906  -51.9170 H         1 UNK         0.0785 
    114 H114       30.3309  -51.2175  -50.9495 H         1 UNK         0.0798 
    115 H115       31.8528  -51.7683  -51.6248 H         1 UNK         0.0798 
    116 H116       30.3480  -52.0344  -52.5060 H         1 UNK         0.0798 
    117 H117       31.9700  -51.1105  -54.1136 H         1 UNK         0.3079 
    118 H118       33.7369  -50.4597  -55.5922 H         1 UNK         0.0794 
    119 H119       31.5540  -50.9661  -56.5909 H         1 UNK         0.0786 
    120 H120       32.5377  -50.2413  -57.8503 H         1 UNK         0.0786 
    121 H121       31.2914  -49.2904  -57.0423 H         1 UNK         0.0786 
    122 H122       33.3496  -47.6418  -56.5131 H         1 UNK         0.3032 
    123 H123       36.8090  -47.0398  -56.4236 H         1 UNK         0.1094 
    124 H124       36.5847  -47.8604  -58.7721 H         1 UNK         0.0794 
    125 H125       35.0035  -47.1013  -58.9082 H         1 UNK         0.0794 
    126 H126       36.4484  -46.1103  -58.7089 H         1 UNK         0.0794 
    127 H127       34.2248  -45.7208  -57.0291 H         1 UNK         0.3016 
@<TRIPOS>BOND
     1    1    2 1    
     2    1   67 1    
     3    1   68 1    
     4    1   69 1    
     5    2    3 2    
     6    2    4 am   BACKBONE|DICT|INTERRES
     7    4    5 1    
     8    4   70 1    
     9    5    6 1    
    10    5   65 1    
    11    5   71 1    
    12    6    7 1    
    13    6   72 1    
    14    6   73 1    
    15    7    8 1    
    16    8    9 1    
    17    8   74 1    
    18    8   75 1    
    19    9   10 ar   
    20    9   14 ar   
    21   10   11 ar   
    22   10   76 1    
    23   11   12 ar   
    24   11   48 1    
    25   12   13 ar   
    26   12   77 1    
    27   13   14 ar   
    28   13   15 1    
    29   14   78 1    
    30   15   16 1    
    31   15   79 1    
    32   15   80 1    
    33   16   17 1    
    34   17   18 1    
    35   17   81 1    
    36   17   82 1    
    37   18   19 1    
    38   18   22 1    
    39   18   83 1    
    40   19   20 am   BACKBONE|DICT|INTERRES
    41   19   21 2    
    42   20   84 1    
    43   20   85 1    
    44   22   23 am   BACKBONE|DICT|INTERRES
    45   22   86 1    
    46   23   24 2    
    47   23   25 1    
    48   25   26 1    
    49   25   27 1    
    50   25   87 1    
    51   26   88 1    
    52   26   89 1    
    53   26   90 1    
    54   27   28 am   BACKBONE|DICT|INTERRES
    55   27   91 1    
    56   28   29 2    
    57   28   30 1    
    58   30   31 1    
    59   30   32 1    
    60   30   92 1    
    61   31   93 1    
    62   31   94 1    
    63   31   95 1    
    64   32   33 am   BACKBONE|DICT|INTERRES
    65   32   96 1    
    66   33   34 2    
    67   33   35 1    
    68   35   36 1    
    69   35   37 1    
    70   35   97 1    
    71   36   98 1    
    72   36   99 1    
    73   36  100 1    
    74   37   38 am   BACKBONE|DICT|INTERRES
    75   37  101 1    
    76   38   39 2    
    77   38   40 1    
    78   40   41 1    
    79   40   42 1    
    80   40  102 1    
    81   41  103 1    
    82   41  104 1    
    83   41  105 1    
    84   42   43 am   BACKBONE|DICT|INTERRES
    85   42  106 1    
    86   43   44 2    
    87   43   45 1    
    88   45   46 1    
    89   45   49 1    
    90   45  107 1    
    91   46   47 1    
    92   46  108 1    
    93   46  109 1    
    94   47   48 1    
    95   48  110 1    
    96   48  111 1    
    97   49   50 am   BACKBONE|DICT|INTERRES
    98   49  112 1    
    99   50   51 2    
   100   50   52 1    
   101   52   53 1    
   102   52   54 1    
   103   52  113 1    
   104   53  114 1    
   105   53  115 1    
   106   53  116 1    
   107   54   55 am   BACKBONE|DICT|INTERRES
   108   54  117 1    
   109   55   56 2    
   110   55   57 1    
   111   57   58 1    
   112   57   59 1    
   113   57  118 1    
   114   58  119 1    
   115   58  120 1    
   116   58  121 1    
   117   59   60 am   BACKBONE|DICT|INTERRES
   118   59  122 1    
   119   60   61 2    
   120   60   62 1    
   121   62   63 1    
   122   62   64 1    
   123   62  123 1    
   124   63  124 1    
   125   63  125 1    
   126   63  126 1    
   127   64   65 am   BACKBONE|DICT|INTERRES
   128   64  127 1    
   129   65   66 2    
@<TRIPOS>SUBSTRUCTURE
     1 UNK         1 GROUP             0       ****    0 ROOT    
