@<TRIPOS>MOLECULE
3R134
127   129    1
SMALL
USER_CHARGES


@<TRIPOS>ATOM
      1 CA         36.6467  -46.4959  -56.4445 C.3       0 UNK        -0.1968 
      2 C          35.6226  -46.5467  -55.3221 C.2       0 UNK         0.4852 
      3 O          34.9749  -47.5772  -55.1338 O.2       0 UNK        -0.5359 
      4 N          35.4838  -45.4529  -54.5598 N.am      1 UNK        -0.4300 
      5 CA         34.5019  -45.2530  -53.4796 C.3       1 UNK         0.0863 
      6 C6         34.5824  -43.8214  -52.8962 C.3       11 UNK        -0.0953 
      7 S7         34.2761  -42.5450  -54.1636 S.3       11 UNK        -0.2369 
      8 C8         32.6599  -41.8804  -53.6516 C.3       11 UNK         0.0226 
      9 C9         31.5297  -42.8847  -53.8341 C.ar      11 UNK        -0.0699 
     10 C10        30.9457  -43.5030  -52.7249 C.ar      11 UNK        -0.0804 
     11 C11        29.8799  -44.3947  -52.8845 C.ar      11 UNK        -0.0871 
     12 C12        29.3988  -44.6695  -54.1691 C.ar      11 UNK        -0.1008 
     13 C13        29.9762  -44.0576  -55.2860 C.ar      11 UNK        -0.0735 
     14 C14        31.0416  -43.1687  -55.1121 C.ar      11 UNK        -0.0945 
     15 C15        29.4538  -44.3431  -56.6846 C.3       11 UNK         0.0169 
     16 S16        28.2503  -43.0769  -57.1960 S.3       11 UNK        -0.2669 
     17 C17        28.5270  -43.0010  -59.0010 C.3       11 UNK        -0.0850 
     18 CA         27.2223  -43.1442  -59.8267 C.3       10 UNK         0.0855 
     19 C          27.5052  -42.8874  -61.3374 C.2       10 UNK         0.5543 
     20 N          27.3794  -43.8734  -62.2173 N.am      10 UNK        -0.7343 
     21 O          27.8449  -41.7687  -61.7148 O.2       10 UNK        -0.5027 
     22 N          26.5265  -44.4066  -59.5261 N.am      10 UNK        -0.4495 
     23 C          25.2564  -44.6833  -59.8495 C.2       10 UNK         0.4903 
     24 O          24.5087  -43.9029  -60.4393 O.2       10 UNK        -0.4860 
     25 CA         24.7285  -46.0713  -59.4510 C.3       9 UNK         0.0227 
     26 CB         24.9256  -47.0718  -60.6018 C.3       9 UNK        -0.1964 
     27 N          25.3575  -46.6011  -58.2384 N.am      9 UNK        -0.4231 
     28 C          25.0958  -46.1812  -56.9920 C.2       9 UNK         0.5014 
     29 O          24.3056  -45.2705  -56.7370 O.2       9 UNK        -0.5270 
     30 CA         25.8439  -46.8852  -55.8379 C.3       8 UNK         0.0284 
     31 CB         24.9999  -46.9605  -54.5486 C.3       8 UNK        -0.1977 
     32 N          26.3921  -48.2081  -56.1747 N.am      8 UNK        -0.4342 
     33 C          25.7255  -49.2991  -56.5879 C.2       8 UNK         0.5039 
     34 O          24.5065  -49.3488  -56.7504 O.2       8 UNK        -0.5547 
     35 CA         26.5741  -50.5433  -56.8824 C.3       7 UNK         0.0281 
     36 CB         27.4624  -50.3276  -58.1208 C.3       7 UNK        -0.1963 
     37 N          27.4084  -50.8719  -55.7285 N.am      7 UNK        -0.4444 
     38 C          27.0841  -51.7644  -54.7825 C.2       7 UNK         0.5104 
     39 O          26.0890  -52.4884  -54.8303 O.2       7 UNK        -0.5100 
     40 CA         28.0245  -51.8635  -53.5660 C.3       6 UNK         0.0396 
     41 CB         29.0537  -52.9852  -53.7737 C.3       6 UNK        -0.1801 
     42 N          28.7213  -50.6052  -53.2825 N.am      6 UNK        -0.4747 
     43 C          28.1134  -49.4927  -52.8369 C.2       6 UNK         0.5012 
     44 O          26.9264  -49.4564  -52.5127 O.2       6 UNK        -0.5003 
     45 CA         28.9460  -48.1947  -52.7554 C.3       5 UNK         0.0782 
     46 C46        29.2591  -47.8645  -51.2749 C.3       11 UNK        -0.0868 
     47 S47        30.2905  -46.3840  -51.0207 S.3       11 UNK        -0.2515 
     48 C48        29.2465  -45.0374  -51.6590 C.3       11 UNK         0.0199 
     49 N          30.1447  -48.2173  -53.6031 N.am      5 UNK        -0.4607 
     50 C          30.1365  -48.3010  -54.9403 C.2       4 UNK         0.5031 
     51 O          29.1034  -48.3239  -55.6107 O.2       4 UNK        -0.5119 
     52 CA         31.4878  -48.4338  -55.6609 C.3       4 UNK         0.0263 
     53 CB         31.8991  -47.0845  -56.2674 C.3       4 UNK        -0.1967 
     54 N          32.5895  -48.9669  -54.8486 N.am      4 UNK        -0.4237 
     55 C          32.5999  -50.1628  -54.2382 C.2       3 UNK         0.4908 
     56 O          31.6205  -50.9080  -54.1897 O.2       3 UNK        -0.5102 
     57 CA         33.9069  -50.6174  -53.5719 C.3       3 UNK         0.0241 
     58 CB         34.7872  -51.3616  -54.5894 C.3       3 UNK        -0.1971 
     59 N          34.6689  -49.5009  -53.0064 N.am      3 UNK        -0.4139 
     60 C          35.0258  -49.3888  -51.7181 C.2       2 UNK         0.5016 
     61 O          34.7398  -50.2176  -50.8526 O.2       2 UNK        -0.5319 
     62 CA         35.8573  -48.1544  -51.3113 C.3       2 UNK         0.0286 
     63 CB         37.3485  -48.5183  -51.2239 C.3       2 UNK        -0.1963 
     64 N          35.6981  -47.0134  -52.2164 N.am      2 UNK        -0.4790 
     65 C          34.5706  -46.2994  -52.3444 C.2       1 UNK         0.5024 
     66 O          33.5917  -46.4622  -51.6194 O.2       1 UNK        -0.4888 
     67 H67        37.3979  -47.2720  -56.3012 H         1 UNK         0.0892 
     68 H68        36.1574  -46.6680  -57.4027 H         1 UNK         0.0892 
     69 H69        37.1553  -45.5332  -56.4905 H         1 UNK         0.0892 
     70 H70        36.0480  -44.6409  -54.7678 H         1 UNK         0.3107 
     71 H71        33.5144  -45.3702  -53.9295 H         1 UNK         0.0773 
     72 H72        35.5673  -43.6411  -52.4615 H         1 UNK         0.0680 
     73 H73        33.8666  -43.6925  -52.0821 H         1 UNK         0.0680 
     74 H74        32.4454  -40.9911  -54.2459 H         1 UNK         0.0650 
     75 H75        32.7197  -41.5441  -52.6153 H         1 UNK         0.0650 
     76 H76        31.3156  -43.2876  -51.7317 H         1 UNK         0.1397 
     77 H77        28.5712  -45.3507  -54.3027 H         1 UNK         0.1363 
     78 H78        31.4855  -42.6871  -55.9728 H         1 UNK         0.1355 
     79 H79        30.2970  -44.3662  -57.3761 H         1 UNK         0.0707 
     80 H80        28.9869  -45.3284  -56.7306 H         1 UNK         0.0707 
     81 H81        29.0065  -42.0427  -59.2113 H         1 UNK         0.1034 
     82 H82        29.2436  -43.7648  -59.3073 H         1 UNK         0.1034 
     83 H83        26.5538  -42.3394  -59.5145 H         1 UNK         0.0482 
     84 H84        27.0976  -44.7922  -61.9172 H         1 UNK         0.3460 
     85 H85        27.5626  -43.6930  -63.1918 H         1 UNK         0.3460 
     86 H86        27.0618  -45.1025  -59.0309 H         1 UNK         0.2989 
     87 H87        23.6563  -45.9764  -59.2656 H         1 UNK         0.0559 
     88 H88        25.9806  -47.2311  -60.8278 H         1 UNK         0.0848 
     89 H89        24.4470  -46.7148  -61.5150 H         1 UNK         0.0848 
     90 H90        24.4830  -48.0398  -60.3652 H         1 UNK         0.0848 
     91 H91        26.0064  -47.3652  -58.3523 H         1 UNK         0.3144 
     92 H92        26.7074  -46.2541  -55.6251 H         1 UNK         0.0727 
     93 H93        24.7034  -45.9664  -54.2118 H         1 UNK         0.0790 
     94 H94        25.5588  -47.4208  -53.7345 H         1 UNK         0.0790 
     95 H95        24.0880  -47.5395  -54.6977 H         1 UNK         0.0790 
     96 H96        27.4050  -48.2832  -56.0689 H         1 UNK         0.3215 
     97 H97        25.8940  -51.3700  -57.1005 H         1 UNK         0.0863 
     98 H98        28.0109  -51.2356  -58.3718 H         1 UNK         0.0808 
     99 H99        28.1923  -49.5307  -57.9735 H         1 UNK         0.0808 
    100 H100       26.8603  -50.0645  -58.9917 H         1 UNK         0.0808 
    101 H101       28.2244  -50.2921  -55.5775 H         1 UNK         0.3118 
    102 H102       27.4166  -52.1178  -52.6951 H         1 UNK         0.0546 
    103 H103       29.6820  -52.8004  -54.6459 H         1 UNK         0.0828 
    104 H104       28.5585  -53.9450  -53.9269 H         1 UNK         0.0828 
    105 H105       29.7069  -53.0917  -52.9076 H         1 UNK         0.0828 
    106 H106       29.7085  -50.5685  -53.5212 H         1 UNK         0.3005 
    107 H107       28.2979  -47.4103  -53.1481 H         1 UNK         0.1257 
    108 H108       29.7808  -48.7010  -50.8053 H         1 UNK         0.0775 
    109 H109       28.3346  -47.7314  -50.7091 H         1 UNK         0.0775 
    110 H110       28.2402  -45.3950  -51.8799 H         1 UNK         0.0840 
    111 H111       29.1296  -44.2860  -50.8767 H         1 UNK         0.0840 
    112 H112       31.0327  -48.1826  -53.1237 H         1 UNK         0.2987 
    113 H113       31.3354  -49.1373  -56.4818 H         1 UNK         0.0785 
    114 H114       32.8237  -47.1675  -56.8384 H         1 UNK         0.0798 
    115 H115       32.0412  -46.3234  -55.5000 H         1 UNK         0.0798 
    116 H116       31.1339  -46.7204  -56.9529 H         1 UNK         0.0798 
    117 H117       33.4581  -48.4346  -54.8869 H         1 UNK         0.3079 
    118 H118       33.6289  -51.3242  -52.7873 H         1 UNK         0.0794 
    119 H119       34.2488  -52.1994  -55.0350 H         1 UNK         0.0786 
    120 H120       35.6813  -51.7668  -54.1154 H         1 UNK         0.0786 
    121 H121       35.1066  -50.7070  -55.4017 H         1 UNK         0.0786 
    122 H122       34.9365  -48.7621  -53.6518 H         1 UNK         0.3032 
    123 H123       35.5185  -47.8506  -50.3180 H         1 UNK         0.1094 
    124 H124       37.9421  -47.6790  -50.8609 H         1 UNK         0.0794 
    125 H125       37.5078  -49.3476  -50.5330 H         1 UNK         0.0794 
    126 H126       37.7483  -48.8206  -52.1928 H         1 UNK         0.0794 
    127 H127       36.4606  -46.8179  -52.8490 H         1 UNK         0.3016 
@<TRIPOS>BOND
     1    1    2 1    
     2    1   67 1    
     3    1   68 1    
     4    1   69 1    
     5    2    3 2    
     6    2    4 am   BACKBONE|DICT|INTERRES
     7    4    5 1    
     8    4   70 1    
     9    5    6 1    
    10    5   65 1    
    11    5   71 1    
    12    6    7 1    
    13    6   72 1    
    14    6   73 1    
    15    7    8 1    
    16    8    9 1    
    17    8   74 1    
    18    8   75 1    
    19    9   10 ar   
    20    9   14 ar   
    21   10   11 ar   
    22   10   76 1    
    23   11   12 ar   
    24   11   48 1    
    25   12   13 ar   
    26   12   77 1    
    27   13   14 ar   
    28   13   15 1    
    29   14   78 1    
    30   15   16 1    
    31   15   79 1    
    32   15   80 1    
    33   16   17 1    
    34   17   18 1    
    35   17   81 1    
    36   17   82 1    
    37   18   19 1    
    38   18   22 1    
    39   18   83 1    
    40   19   20 am   BACKBONE|DICT|INTERRES
    41   19   21 2    
    42   20   84 1    
    43   20   85 1    
    44   22   23 am   BACKBONE|DICT|INTERRES
    45   22   86 1    
    46   23   24 2    
    47   23   25 1    
    48   25   26 1    
    49   25   27 1    
    50   25   87 1    
    51   26   88 1    
    52   26   89 1    
    53   26   90 1    
    54   27   28 am   BACKBONE|DICT|INTERRES
    55   27   91 1    
    56   28   29 2    
    57   28   30 1    
    58   30   31 1    
    59   30   32 1    
    60   30   92 1    
    61   31   93 1    
    62   31   94 1    
    63   31   95 1    
    64   32   33 am   BACKBONE|DICT|INTERRES
    65   32   96 1    
    66   33   34 2    
    67   33   35 1    
    68   35   36 1    
    69   35   37 1    
    70   35   97 1    
    71   36   98 1    
    72   36   99 1    
    73   36  100 1    
    74   37   38 am   BACKBONE|DICT|INTERRES
    75   37  101 1    
    76   38   39 2    
    77   38   40 1    
    78   40   41 1    
    79   40   42 1    
    80   40  102 1    
    81   41  103 1    
    82   41  104 1    
    83   41  105 1    
    84   42   43 am   BACKBONE|DICT|INTERRES
    85   42  106 1    
    86   43   44 2    
    87   43   45 1    
    88   45   46 1    
    89   45   49 1    
    90   45  107 1    
    91   46   47 1    
    92   46  108 1    
    93   46  109 1    
    94   47   48 1    
    95   48  110 1    
    96   48  111 1    
    97   49   50 am   BACKBONE|DICT|INTERRES
    98   49  112 1    
    99   50   51 2    
   100   50   52 1    
   101   52   53 1    
   102   52   54 1    
   103   52  113 1    
   104   53  114 1    
   105   53  115 1    
   106   53  116 1    
   107   54   55 am   BACKBONE|DICT|INTERRES
   108   54  117 1    
   109   55   56 2    
   110   55   57 1    
   111   57   58 1    
   112   57   59 1    
   113   57  118 1    
   114   58  119 1    
   115   58  120 1    
   116   58  121 1    
   117   59   60 am   BACKBONE|DICT|INTERRES
   118   59  122 1    
   119   60   61 2    
   120   60   62 1    
   121   62   63 1    
   122   62   64 1    
   123   62  123 1    
   124   63  124 1    
   125   63  125 1    
   126   63  126 1    
   127   64   65 am   BACKBONE|DICT|INTERRES
   128   64  127 1    
   129   65   66 2    
@<TRIPOS>SUBSTRUCTURE
     1 UNK         1 GROUP             0       ****    0 ROOT    
