@<TRIPOS>MOLECULE
3R134
127   129    1
SMALL
USER_CHARGES


@<TRIPOS>ATOM
      1 CA         36.0758  -45.4236  -50.8277 C.3       0 UNK        -0.1968 
      2 C          35.9161  -45.5827  -52.3377 C.2       0 UNK         0.4852 
      3 O          36.8539  -46.0399  -52.9889 O.2       0 UNK        -0.5359 
      4 N          34.7761  -45.2286  -52.9511 N.am      1 UNK        -0.4300 
      5 CA         33.5271  -44.6981  -52.3736 C.3       1 UNK         0.0863 
      6 C6         33.6608  -43.3367  -51.6298 C.3       11 UNK        -0.0953 
      7 S7         34.6900  -42.1151  -52.5199 S.3       11 UNK        -0.2369 
      8 C8         33.4492  -41.0507  -53.3338 C.3       11 UNK         0.0226 
      9 C9         32.5920  -41.7514  -54.3879 C.ar      11 UNK        -0.0699 
     10 C10        33.1090  -42.7618  -55.2111 C.ar      11 UNK        -0.0804 
     11 C11        32.2902  -43.4134  -56.1382 C.ar      11 UNK        -0.0871 
     12 C12        30.9696  -42.9924  -56.3003 C.ar      11 UNK        -0.1008 
     13 C13        30.4479  -41.9657  -55.5117 C.ar      11 UNK        -0.0735 
     14 C14        31.2591  -41.3569  -54.5502 C.ar      11 UNK        -0.0945 
     15 C15        29.0130  -41.5132  -55.7233 C.3       11 UNK         0.0169 
     16 S16        27.8245  -42.7894  -55.1956 S.3       11 UNK        -0.2669 
     17 C17        26.4879  -42.5386  -56.4189 C.3       11 UNK        -0.0850 
     18 CA         26.4254  -43.6259  -57.5298 C.3       10 UNK         0.0855 
     19 C          27.6848  -43.6854  -58.4350 C.2       10 UNK         0.5543 
     20 N          27.9562  -42.6274  -59.1870 N.am      10 UNK        -0.7343 
     21 O          28.4182  -44.6722  -58.4648 O.2       10 UNK        -0.5027 
     22 N          26.0916  -44.9494  -56.9974 N.am      10 UNK        -0.4495 
     23 C          24.8558  -45.3804  -56.7282 C.2       10 UNK         0.4903 
     24 O          23.8496  -44.6739  -56.8155 O.2       10 UNK        -0.4860 
     25 CA         24.7307  -46.8548  -56.3043 C.3       9 UNK         0.0227 
     26 CB         23.2768  -47.3719  -56.3108 C.3       9 UNK        -0.1964 
     27 N          25.6040  -47.7365  -57.0854 N.am      9 UNK        -0.4231 
     28 C          25.5897  -47.9625  -58.4082 C.2       9 UNK         0.5014 
     29 O          24.7857  -47.4553  -59.1915 O.2       9 UNK        -0.5270 
     30 CA         26.6652  -48.9202  -58.9564 C.3       8 UNK         0.0284 
     31 CB         27.8629  -48.1206  -59.4941 C.3       8 UNK        -0.1977 
     32 N          27.1368  -49.8888  -57.9610 N.am      8 UNK        -0.4342 
     33 C          26.3964  -50.8928  -57.4673 C.2       8 UNK         0.5039 
     34 O          25.2744  -51.1860  -57.8822 O.2       8 UNK        -0.5547 
     35 CA         26.9890  -51.6752  -56.2829 C.3       7 UNK         0.0281 
     36 CB         27.9828  -52.7403  -56.7724 C.3       7 UNK        -0.1963 
     37 N          27.6395  -50.8008  -55.3028 N.am      7 UNK        -0.4444 
     38 C          27.0097  -49.8826  -54.5551 C.2       7 UNK         0.5104 
     39 O          25.7911  -49.7156  -54.5552 O.2       7 UNK        -0.5100 
     40 CA         27.8890  -48.9617  -53.6943 C.3       6 UNK         0.0396 
     41 CB         28.2204  -49.6158  -52.3436 C.3       6 UNK        -0.1801 
     42 N          29.1250  -48.5837  -54.3810 N.am      6 UNK        -0.4747 
     43 C          29.1978  -47.7079  -55.3955 C.2       6 UNK         0.5012 
     44 O          28.2274  -47.0949  -55.8409 O.2       6 UNK        -0.5003 
     45 CA         30.5885  -47.5102  -56.0332 C.3       5 UNK         0.0782 
     46 C46        31.3627  -46.4072  -55.2742 C.3       11 UNK        -0.0868 
     47 S47        33.0385  -46.0885  -55.9339 S.3       11 UNK        -0.2515 
     48 C48        32.8138  -44.5893  -56.9509 C.3       11 UNK         0.0199 
     49 N          31.3303  -48.7754  -56.1013 N.am      5 UNK        -0.4607 
     50 C          30.9843  -49.8055  -56.8864 C.2       4 UNK         0.5031 
     51 O          30.0111  -49.7901  -57.6394 O.2       4 UNK        -0.5119 
     52 CA         31.8280  -51.0879  -56.7799 C.3       4 UNK         0.0263 
     53 CB         33.0496  -51.0044  -57.7079 C.3       4 UNK        -0.1967 
     54 N          32.2692  -51.3851  -55.4145 N.am      4 UNK        -0.4237 
     55 C          31.4565  -51.5778  -54.3663 C.2       3 UNK         0.4908 
     56 O          30.2288  -51.5602  -54.4438 O.2       3 UNK        -0.5102 
     57 CA         32.1086  -51.7726  -52.9859 C.3       3 UNK         0.0241 
     58 CB         33.5681  -52.2785  -53.0511 C.3       3 UNK        -0.1971 
     59 N          32.0189  -50.5576  -52.1639 N.am      3 UNK        -0.4139 
     60 C          32.4866  -49.3408  -52.4800 C.2       2 UNK         0.5016 
     61 O          33.0221  -49.0683  -53.5604 O.2       2 UNK        -0.5319 
     62 CA         32.3386  -48.2412  -51.4160 C.3       2 UNK         0.0286 
     63 CB         33.0323  -48.6205  -50.0921 C.3       2 UNK        -0.1963 
     64 N          32.9451  -47.0334  -51.9605 N.am      2 UNK        -0.4790 
     65 C          32.7476  -45.7683  -51.5776 C.2       1 UNK         0.5024 
     66 O          32.0034  -45.4435  -50.6520 O.2       1 UNK        -0.4888 
     67 H67        36.9114  -46.0261  -50.4721 H         1 UNK         0.0892 
     68 H68        36.2890  -44.3846  -50.5792 H         1 UNK         0.0892 
     69 H69        35.1931  -45.7443  -50.2786 H         1 UNK         0.0892 
     70 H70        34.7341  -45.3633  -53.9520 H         1 UNK         0.3107 
     71 H71        32.8831  -44.5138  -53.2318 H         1 UNK         0.0773 
     72 H72        34.0904  -43.4753  -50.6374 H         1 UNK         0.0680 
     73 H73        32.6726  -42.9048  -51.4615 H         1 UNK         0.0680 
     74 H74        33.9702  -40.2213  -53.8134 H         1 UNK         0.0650 
     75 H75        32.8174  -40.6114  -52.5601 H         1 UNK         0.0650 
     76 H76        34.1383  -43.0743  -55.1042 H         1 UNK         0.1397 
     77 H77        30.3345  -43.4801  -57.0268 H         1 UNK         0.1363 
     78 H78        30.8540  -40.5662  -53.9333 H         1 UNK         0.1355 
     79 H79        28.8070  -40.5886  -55.1820 H         1 UNK         0.0707 
     80 H80        28.8830  -41.2848  -56.7817 H         1 UNK         0.0707 
     81 H81        26.5687  -41.5456  -56.8632 H         1 UNK         0.1034 
     82 H82        25.5418  -42.5230  -55.8759 H         1 UNK         0.1034 
     83 H83        25.6155  -43.3496  -58.2082 H         1 UNK         0.0482 
     84 H84        27.3567  -41.8175  -59.1918 H         1 UNK         0.3460 
     85 H85        28.7679  -42.6509  -59.7836 H         1 UNK         0.3460 
     86 H86        26.8771  -45.5858  -56.9098 H         1 UNK         0.2989 
     87 H87        25.0939  -46.9067  -55.2769 H         1 UNK         0.0559 
     88 H88        22.6524  -46.7916  -55.6306 H         1 UNK         0.0848 
     89 H89        23.2276  -48.4119  -55.9875 H         1 UNK         0.0848 
     90 H90        22.8268  -47.3060  -57.3018 H         1 UNK         0.0848 
     91 H91        26.3540  -48.1629  -56.5571 H         1 UNK         0.3144 
     92 H92        26.2222  -49.4749  -59.7862 H         1 UNK         0.0727 
     93 H93        27.5469  -47.4040  -60.2535 H         1 UNK         0.0790 
     94 H94        28.6043  -48.7750  -59.9529 H         1 UNK         0.0790 
     95 H95        28.3584  -47.5564  -58.7028 H         1 UNK         0.0790 
     96 H96        28.0944  -49.7781  -57.6342 H         1 UNK         0.3215 
     97 H97        26.1664  -52.1844  -55.7761 H         1 UNK         0.0863 
     98 H98        28.3838  -53.3215  -55.9417 H         1 UNK         0.0808 
     99 H99        28.8224  -52.2951  -57.3057 H         1 UNK         0.0808 
    100 H100       27.4980  -53.4397  -57.4547 H         1 UNK         0.0808 
    101 H101       28.6394  -50.9311  -55.1627 H         1 UNK         0.3118 
    102 H102       27.3198  -48.0512  -53.4940 H         1 UNK         0.0546 
    103 H103       28.7939  -50.5351  -52.4625 H         1 UNK         0.0828 
    104 H104       27.3076  -49.8723  -51.8042 H         1 UNK         0.0828 
    105 H105       28.7919  -48.9417  -51.7060 H         1 UNK         0.0828 
    106 H106       29.9589  -49.0966  -54.1333 H         1 UNK         0.3005 
    107 H107       30.4240  -47.1640  -57.0566 H         1 UNK         0.1257 
    108 H108       30.7849  -45.4833  -55.2625 H         1 UNK         0.0775 
    109 H109       31.4756  -46.6898  -54.2282 H         1 UNK         0.0775 
    110 H110       33.7700  -44.3199  -57.4016 H         1 UNK         0.0840 
    111 H111       32.1410  -44.8205  -57.7786 H         1 UNK         0.0840 
    112 H112       32.1271  -48.8672  -55.4796 H         1 UNK         0.2987 
    113 H113       31.2051  -51.9208  -57.1107 H         1 UNK         0.0785 
    114 H114       33.6093  -51.9399  -57.7136 H         1 UNK         0.0798 
    115 H115       33.7303  -50.2059  -57.4094 H         1 UNK         0.0798 
    116 H116       32.7445  -50.8052  -58.7364 H         1 UNK         0.0798 
    117 H117       33.2639  -51.3644  -55.2422 H         1 UNK         0.3079 
    118 H118       31.5187  -52.5382  -52.4792 H         1 UNK         0.0794 
    119 H119       33.6451  -53.1838  -53.6551 H         1 UNK         0.0786 
    120 H120       33.9355  -52.5289  -52.0558 H         1 UNK         0.0786 
    121 H121       34.2501  -51.5387  -53.4715 H         1 UNK         0.0786 
    122 H122       31.5685  -50.6778  -51.2673 H         1 UNK         0.3032 
    123 H123       31.2743  -48.0646  -51.2462 H         1 UNK         0.1094 
    124 H124       34.0899  -48.8413  -50.2428 H         1 UNK         0.0794 
    125 H125       32.9628  -47.8150  -49.3609 H         1 UNK         0.0794 
    126 H126       32.5750  -49.4996  -49.6372 H         1 UNK         0.0794 
    127 H127       33.5255  -47.2187  -52.7720 H         1 UNK         0.3016 
@<TRIPOS>BOND
     1    1    2 1    
     2    1   67 1    
     3    1   68 1    
     4    1   69 1    
     5    2    3 2    
     6    2    4 am   BACKBONE|DICT|INTERRES
     7    4    5 1    
     8    4   70 1    
     9    5    6 1    
    10    5   65 1    
    11    5   71 1    
    12    6    7 1    
    13    6   72 1    
    14    6   73 1    
    15    7    8 1    
    16    8    9 1    
    17    8   74 1    
    18    8   75 1    
    19    9   10 ar   
    20    9   14 ar   
    21   10   11 ar   
    22   10   76 1    
    23   11   12 ar   
    24   11   48 1    
    25   12   13 ar   
    26   12   77 1    
    27   13   14 ar   
    28   13   15 1    
    29   14   78 1    
    30   15   16 1    
    31   15   79 1    
    32   15   80 1    
    33   16   17 1    
    34   17   18 1    
    35   17   81 1    
    36   17   82 1    
    37   18   19 1    
    38   18   22 1    
    39   18   83 1    
    40   19   20 am   BACKBONE|DICT|INTERRES
    41   19   21 2    
    42   20   84 1    
    43   20   85 1    
    44   22   23 am   BACKBONE|DICT|INTERRES
    45   22   86 1    
    46   23   24 2    
    47   23   25 1    
    48   25   26 1    
    49   25   27 1    
    50   25   87 1    
    51   26   88 1    
    52   26   89 1    
    53   26   90 1    
    54   27   28 am   BACKBONE|DICT|INTERRES
    55   27   91 1    
    56   28   29 2    
    57   28   30 1    
    58   30   31 1    
    59   30   32 1    
    60   30   92 1    
    61   31   93 1    
    62   31   94 1    
    63   31   95 1    
    64   32   33 am   BACKBONE|DICT|INTERRES
    65   32   96 1    
    66   33   34 2    
    67   33   35 1    
    68   35   36 1    
    69   35   37 1    
    70   35   97 1    
    71   36   98 1    
    72   36   99 1    
    73   36  100 1    
    74   37   38 am   BACKBONE|DICT|INTERRES
    75   37  101 1    
    76   38   39 2    
    77   38   40 1    
    78   40   41 1    
    79   40   42 1    
    80   40  102 1    
    81   41  103 1    
    82   41  104 1    
    83   41  105 1    
    84   42   43 am   BACKBONE|DICT|INTERRES
    85   42  106 1    
    86   43   44 2    
    87   43   45 1    
    88   45   46 1    
    89   45   49 1    
    90   45  107 1    
    91   46   47 1    
    92   46  108 1    
    93   46  109 1    
    94   47   48 1    
    95   48  110 1    
    96   48  111 1    
    97   49   50 am   BACKBONE|DICT|INTERRES
    98   49  112 1    
    99   50   51 2    
   100   50   52 1    
   101   52   53 1    
   102   52   54 1    
   103   52  113 1    
   104   53  114 1    
   105   53  115 1    
   106   53  116 1    
   107   54   55 am   BACKBONE|DICT|INTERRES
   108   54  117 1    
   109   55   56 2    
   110   55   57 1    
   111   57   58 1    
   112   57   59 1    
   113   57  118 1    
   114   58  119 1    
   115   58  120 1    
   116   58  121 1    
   117   59   60 am   BACKBONE|DICT|INTERRES
   118   59  122 1    
   119   60   61 2    
   120   60   62 1    
   121   62   63 1    
   122   62   64 1    
   123   62  123 1    
   124   63  124 1    
   125   63  125 1    
   126   63  126 1    
   127   64   65 am   BACKBONE|DICT|INTERRES
   128   64  127 1    
   129   65   66 2    
@<TRIPOS>SUBSTRUCTURE
     1 UNK         1 GROUP             0       ****    0 ROOT    
