@<TRIPOS>MOLECULE
3R134
127   129    1
SMALL
USER_CHARGES


@<TRIPOS>ATOM
      1 CA         34.8348  -46.8541  -50.4548 C.3       0 UNK        -0.1968 
      2 C          33.8978  -47.1422  -51.6170 C.2       0 UNK         0.4852 
      3 O          33.9690  -48.2255  -52.2003 O.2       0 UNK        -0.5359 
      4 N          33.0100  -46.1901  -51.9441 N.am      1 UNK        -0.4300 
      5 CA         32.0599  -46.2273  -53.0687 C.3       1 UNK         0.0863 
      6 C6         31.2139  -44.9291  -53.1680 C.3       11 UNK        -0.0953 
      7 S7         32.2360  -43.4140  -53.2017 S.3       11 UNK        -0.2369 
      8 C8         31.1571  -42.2293  -54.0880 C.3       11 UNK         0.0226 
      9 C9         31.1170  -42.3454  -55.6159 C.ar      11 UNK        -0.0699 
     10 C10        31.7934  -43.3485  -56.3228 C.ar      11 UNK        -0.0804 
     11 C11        31.6936  -43.4450  -57.7171 C.ar      11 UNK        -0.0871 
     12 C12        30.9205  -42.5083  -58.4064 C.ar      11 UNK        -0.1008 
     13 C13        30.2459  -41.4941  -57.7243 C.ar      11 UNK        -0.0735 
     14 C14        30.3614  -41.4097  -56.3324 C.ar      11 UNK        -0.0945 
     15 C15        29.3833  -40.5082  -58.5024 C.3       11 UNK         0.0169 
     16 S16        27.8106  -41.2611  -59.0470 S.3       11 UNK        -0.2669 
     17 C17        26.8138  -41.1796  -57.5218 C.3       11 UNK        -0.0850 
     18 CA         27.0094  -42.3991  -56.5743 C.3       10 UNK         0.0855 
     19 C          26.6406  -42.0647  -55.0975 C.2       10 UNK         0.5543 
     20 N          26.0087  -42.9514  -54.3383 N.am      10 UNK        -0.7343 
     21 O          26.9523  -40.9798  -54.6128 O.2       10 UNK        -0.5027 
     22 N          26.3642  -43.6285  -57.0618 N.am      10 UNK        -0.4495 
     23 C          26.9849  -44.6203  -57.7122 C.2       10 UNK         0.4903 
     24 O          28.1115  -44.5440  -58.2018 O.2       10 UNK        -0.4860 
     25 CA         26.2696  -45.9829  -57.6903 C.3       9 UNK         0.0227 
     26 CB         26.4977  -46.7839  -58.9843 C.3       9 UNK        -0.1964 
     27 N          26.7965  -46.7392  -56.5532 N.am      9 UNK        -0.4231 
     28 C          26.5420  -46.4296  -55.2748 C.2       9 UNK         0.5014 
     29 O          25.6236  -45.6841  -54.9250 O.2       9 UNK        -0.5270 
     30 CA         27.5250  -46.9863  -54.2355 C.3       8 UNK         0.0284 
     31 CB         27.3123  -46.4072  -52.8199 C.3       8 UNK        -0.1977 
     32 N          27.5529  -48.4476  -54.2127 N.am      8 UNK        -0.4342 
     33 C          26.5526  -49.2854  -53.9018 C.2       8 UNK         0.5039 
     34 O          25.4154  -48.9273  -53.5909 O.2       8 UNK        -0.5547 
     35 CA         26.9087  -50.7847  -53.9088 C.3       7 UNK         0.0281 
     36 CB         25.6728  -51.7063  -54.0080 C.3       7 UNK        -0.1963 
     37 N          27.9206  -51.1221  -54.9200 N.am      7 UNK        -0.4444 
     38 C          27.7701  -51.0458  -56.2502 C.2       7 UNK         0.5104 
     39 O          26.7248  -50.7050  -56.8074 O.2       7 UNK        -0.5100 
     40 CA         29.0109  -51.3948  -57.0933 C.3       6 UNK         0.0396 
     41 CB         28.6550  -51.6287  -58.5763 C.3       6 UNK        -0.1801 
     42 N          30.0976  -50.4098  -57.0039 N.am      6 UNK        -0.4747 
     43 C          30.0322  -49.0793  -57.1857 C.2       6 UNK         0.5012 
     44 O          28.9826  -48.4386  -57.2530 O.2       6 UNK        -0.5003 
     45 CA         31.3837  -48.3577  -57.3410 C.3       5 UNK         0.0782 
     46 C46        31.2776  -46.8093  -57.2681 C.3       11 UNK        -0.0868 
     47 S47        32.8927  -46.0111  -57.5769 S.3       11 UNK        -0.2515 
     48 C48        32.4172  -44.5252  -58.5219 C.3       11 UNK         0.0199 
     49 N          32.3472  -48.8912  -56.3739 N.am      5 UNK        -0.4607 
     50 C          33.5468  -49.3912  -56.6923 C.2       4 UNK         0.5031 
     51 O          33.9133  -49.6161  -57.8462 O.2       4 UNK        -0.5119 
     52 CA         34.5221  -49.6615  -55.5380 C.3       4 UNK         0.0263 
     53 CB         35.3584  -48.4039  -55.2497 C.3       4 UNK        -0.1967 
     54 N          33.8729  -50.0989  -54.3022 N.am      4 UNK        -0.4237 
     55 C          33.3407  -51.3148  -54.1190 C.2       3 UNK         0.4908 
     56 O          33.2470  -52.1656  -55.0043 O.2       3 UNK        -0.5102 
     57 CA         32.8511  -51.6438  -52.7033 C.3       3 UNK         0.0241 
     58 CB         34.0405  -51.9271  -51.7701 C.3       3 UNK        -0.1971 
     59 N          32.0497  -50.5550  -52.1498 N.am      3 UNK        -0.4139 
     60 C          30.7225  -50.4558  -52.2884 C.2       2 UNK         0.5016 
     61 O          30.0305  -51.2698  -52.9008 O.2       2 UNK        -0.5319 
     62 CA         30.0557  -49.2197  -51.6588 C.3       2 UNK         0.0286 
     63 CB         29.8111  -49.4396  -50.1582 C.3       2 UNK        -0.1963 
     64 N          30.8186  -47.9838  -51.8559 N.am      2 UNK        -0.4790 
     65 C          31.1375  -47.4656  -53.0518 C.2       1 UNK         0.5024 
     66 O          30.7617  -47.9526  -54.1168 O.2       1 UNK        -0.4888 
     67 H67        35.8702  -46.9016  -50.7907 H         1 UNK         0.0892 
     68 H68        34.6619  -45.8677  -50.0248 H         1 UNK         0.0892 
     69 H69        34.6967  -47.5970  -49.6698 H         1 UNK         0.0892 
     70 H70        33.0134  -45.3220  -51.4269 H         1 UNK         0.3107 
     71 H71        32.6602  -46.3035  -53.9780 H         1 UNK         0.0773 
     72 H72        30.5251  -44.8509  -52.3245 H         1 UNK         0.0680 
     73 H73        30.5949  -44.9521  -54.0673 H         1 UNK         0.0680 
     74 H74        30.1422  -42.3194  -53.6973 H         1 UNK         0.0650 
     75 H75        31.4955  -41.2243  -53.8323 H         1 UNK         0.0650 
     76 H76        32.3978  -44.0642  -55.7886 H         1 UNK         0.1397 
     77 H77        30.8276  -42.5752  -59.4820 H         1 UNK         0.1363 
     78 H78        29.8321  -40.6307  -55.8001 H         1 UNK         0.1355 
     79 H79        29.1861  -39.6109  -57.9140 H         1 UNK         0.0707 
     80 H80        29.9325  -40.1751  -59.3842 H         1 UNK         0.0707 
     81 H81        25.7622  -41.0897  -57.7980 H         1 UNK         0.1034 
     82 H82        27.0629  -40.2400  -57.0260 H         1 UNK         0.1034 
     83 H83        28.0727  -42.6126  -56.5068 H         1 UNK         0.0482 
     84 H84        25.7865  -42.6966  -53.3895 H         1 UNK         0.3460 
     85 H85        25.8098  -43.8973  -54.6559 H         1 UNK         0.3460 
     86 H86        25.4527  -43.8143  -56.6664 H         1 UNK         0.2989 
     87 H87        25.1955  -45.8321  -57.5633 H         1 UNK         0.0559 
     88 H88        26.1173  -46.2405  -59.8499 H         1 UNK         0.0848 
     89 H89        25.9848  -47.7453  -58.9493 H         1 UNK         0.0848 
     90 H90        27.5563  -46.9801  -59.1610 H         1 UNK         0.0848 
     91 H91        27.5736  -47.3667  -56.7597 H         1 UNK         0.3144 
     92 H92        28.5133  -46.6661  -54.5668 H         1 UNK         0.0727 
     93 H93        26.3298  -46.6594  -52.4200 H         1 UNK         0.0790 
     94 H94        27.3874  -45.3191  -52.8312 H         1 UNK         0.0790 
     95 H95        28.0634  -46.7739  -52.1211 H         1 UNK         0.0790 
     96 H96        28.4312  -48.8584  -54.5019 H         1 UNK         0.3215 
     97 H97        27.3720  -50.9813  -52.9412 H         1 UNK         0.0863 
     98 H98        25.9604  -52.7575  -54.0157 H         1 UNK         0.0808 
     99 H99        25.0875  -51.5100  -54.9066 H         1 UNK         0.0808 
    100 H100       25.0095  -51.5597  -53.1547 H         1 UNK         0.0808 
    101 H101       28.8272  -51.3808  -54.5387 H         1 UNK         0.3118 
    102 H102       29.4056  -52.3324  -56.6986 H         1 UNK         0.0546 
    103 H103       28.2782  -50.7210  -59.0498 H         1 UNK         0.0828 
    104 H104       27.8833  -52.3929  -58.6778 H         1 UNK         0.0828 
    105 H105       29.5213  -51.9674  -59.1444 H         1 UNK         0.0828 
    106 H106       31.0229  -50.8029  -56.8935 H         1 UNK         0.3005 
    107 H107       31.7054  -48.6024  -58.3558 H         1 UNK         0.1257 
    108 H108       30.5567  -46.4417  -58.0013 H         1 UNK         0.0775 
    109 H109       30.9094  -46.4848  -56.2943 H         1 UNK         0.0775 
    110 H110       33.3224  -44.0856  -58.9426 H         1 UNK         0.0840 
    111 H111       31.8033  -44.8341  -59.3696 H         1 UNK         0.0840 
    112 H112       32.0919  -48.7619  -55.4013 H         1 UNK         0.2987 
    113 H113       35.2020  -50.4533  -55.8603 H         1 UNK         0.0785 
    114 H114       36.1050  -48.5910  -54.4777 H         1 UNK         0.0798 
    115 H115       34.7346  -47.5729  -54.9176 H         1 UNK         0.0798 
    116 H116       35.8897  -48.0743  -56.1436 H         1 UNK         0.0798 
    117 H117       33.9107  -49.4512  -53.5151 H         1 UNK         0.3079 
    118 H118       32.2468  -52.5522  -52.7593 H         1 UNK         0.0794 
    119 H119       34.6599  -52.7354  -52.1615 H         1 UNK         0.0786 
    120 H120       33.7008  -52.2307  -50.7797 H         1 UNK         0.0786 
    121 H121       34.6815  -51.0526  -51.6496 H         1 UNK         0.0786 
    122 H122       32.5530  -49.7902  -51.7162 H         1 UNK         0.3032 
    123 H123       29.0859  -49.0929  -52.1369 H         1 UNK         0.1094 
    124 H124       29.2491  -48.6130  -49.7230 H         1 UNK         0.0794 
    125 H125       29.2314  -50.3479  -49.9869 H         1 UNK         0.0794 
    126 H126       30.7454  -49.5399  -49.6045 H         1 UNK         0.0794 
    127 H127       31.1730  -47.5259  -51.0285 H         1 UNK         0.3016 
@<TRIPOS>BOND
     1    1    2 1    
     2    1   67 1    
     3    1   68 1    
     4    1   69 1    
     5    2    3 2    
     6    2    4 am   BACKBONE|DICT|INTERRES
     7    4    5 1    
     8    4   70 1    
     9    5    6 1    
    10    5   65 1    
    11    5   71 1    
    12    6    7 1    
    13    6   72 1    
    14    6   73 1    
    15    7    8 1    
    16    8    9 1    
    17    8   74 1    
    18    8   75 1    
    19    9   10 ar   
    20    9   14 ar   
    21   10   11 ar   
    22   10   76 1    
    23   11   12 ar   
    24   11   48 1    
    25   12   13 ar   
    26   12   77 1    
    27   13   14 ar   
    28   13   15 1    
    29   14   78 1    
    30   15   16 1    
    31   15   79 1    
    32   15   80 1    
    33   16   17 1    
    34   17   18 1    
    35   17   81 1    
    36   17   82 1    
    37   18   19 1    
    38   18   22 1    
    39   18   83 1    
    40   19   20 am   BACKBONE|DICT|INTERRES
    41   19   21 2    
    42   20   84 1    
    43   20   85 1    
    44   22   23 am   BACKBONE|DICT|INTERRES
    45   22   86 1    
    46   23   24 2    
    47   23   25 1    
    48   25   26 1    
    49   25   27 1    
    50   25   87 1    
    51   26   88 1    
    52   26   89 1    
    53   26   90 1    
    54   27   28 am   BACKBONE|DICT|INTERRES
    55   27   91 1    
    56   28   29 2    
    57   28   30 1    
    58   30   31 1    
    59   30   32 1    
    60   30   92 1    
    61   31   93 1    
    62   31   94 1    
    63   31   95 1    
    64   32   33 am   BACKBONE|DICT|INTERRES
    65   32   96 1    
    66   33   34 2    
    67   33   35 1    
    68   35   36 1    
    69   35   37 1    
    70   35   97 1    
    71   36   98 1    
    72   36   99 1    
    73   36  100 1    
    74   37   38 am   BACKBONE|DICT|INTERRES
    75   37  101 1    
    76   38   39 2    
    77   38   40 1    
    78   40   41 1    
    79   40   42 1    
    80   40  102 1    
    81   41  103 1    
    82   41  104 1    
    83   41  105 1    
    84   42   43 am   BACKBONE|DICT|INTERRES
    85   42  106 1    
    86   43   44 2    
    87   43   45 1    
    88   45   46 1    
    89   45   49 1    
    90   45  107 1    
    91   46   47 1    
    92   46  108 1    
    93   46  109 1    
    94   47   48 1    
    95   48  110 1    
    96   48  111 1    
    97   49   50 am   BACKBONE|DICT|INTERRES
    98   49  112 1    
    99   50   51 2    
   100   50   52 1    
   101   52   53 1    
   102   52   54 1    
   103   52  113 1    
   104   53  114 1    
   105   53  115 1    
   106   53  116 1    
   107   54   55 am   BACKBONE|DICT|INTERRES
   108   54  117 1    
   109   55   56 2    
   110   55   57 1    
   111   57   58 1    
   112   57   59 1    
   113   57  118 1    
   114   58  119 1    
   115   58  120 1    
   116   58  121 1    
   117   59   60 am   BACKBONE|DICT|INTERRES
   118   59  122 1    
   119   60   61 2    
   120   60   62 1    
   121   62   63 1    
   122   62   64 1    
   123   62  123 1    
   124   63  124 1    
   125   63  125 1    
   126   63  126 1    
   127   64   65 am   BACKBONE|DICT|INTERRES
   128   64  127 1    
   129   65   66 2    
@<TRIPOS>SUBSTRUCTURE
     1 UNK         1 GROUP             0       ****    0 ROOT    
