@<TRIPOS>MOLECULE
3R134
127   129    1
SMALL
USER_CHARGES


@<TRIPOS>ATOM
      1 CA         36.2913  -45.5489  -50.3576 C.3       0 UNK        -0.1968 
      2 C          34.7766  -45.6711  -50.2781 C.2       0 UNK         0.4852 
      3 O          34.2438  -45.9198  -49.1960 O.2       0 UNK        -0.5359 
      4 N          34.0897  -45.4964  -51.4168 N.am      1 UNK        -0.4300 
      5 CA         32.6321  -45.5967  -51.5760 C.3       1 UNK         0.0863 
      6 C6         31.8650  -44.4773  -50.8194 C.3       11 UNK        -0.0953 
      7 S7         30.2514  -44.0750  -51.5776 S.3       11 UNK        -0.2369 
      8 C8         30.6233  -42.5859  -52.5623 C.3       11 UNK         0.0226 
      9 C9         31.0256  -42.9238  -53.9925 C.ar      11 UNK        -0.0699 
     10 C10        32.3654  -43.1609  -54.3180 C.ar      11 UNK        -0.0804 
     11 C11        32.7359  -43.4686  -55.6327 C.ar      11 UNK        -0.0871 
     12 C12        31.7568  -43.5006  -56.6305 C.ar      11 UNK        -0.1008 
     13 C13        30.4146  -43.2654  -56.3191 C.ar      11 UNK        -0.0735 
     14 C14        30.0540  -42.9822  -54.9978 C.ar      11 UNK        -0.0945 
     15 C15        29.3635  -43.3016  -57.4176 C.3       11 UNK         0.0169 
     16 S16        28.9109  -45.0075  -57.8604 S.3       11 UNK        -0.2669 
     17 C17        27.7936  -44.7017  -59.2746 C.3       11 UNK        -0.0850 
     18 CA         26.2908  -44.8780  -58.9077 C.3       10 UNK         0.0855 
     19 C          25.3264  -44.3382  -60.0088 C.2       10 UNK         0.5543 
     20 N          24.1397  -44.9075  -60.1833 N.am      10 UNK        -0.7343 
     21 O          25.6393  -43.3681  -60.6950 O.2       10 UNK        -0.5027 
     22 N          25.9732  -46.2328  -58.4207 N.am      10 UNK        -0.4495 
     23 C          26.0469  -47.3736  -59.1245 C.2       10 UNK         0.4903 
     24 O          26.3735  -47.4218  -60.3110 O.2       10 UNK        -0.4860 
     25 CA         25.7020  -48.6915  -58.4028 C.3       9 UNK         0.0227 
     26 CB         26.8862  -49.6731  -58.4681 C.3       9 UNK        -0.1964 
     27 N          25.3420  -48.4792  -56.9996 N.am      9 UNK        -0.4231 
     28 C          24.0926  -48.3368  -56.5339 C.2       9 UNK         0.5014 
     29 O          23.0853  -48.4555  -57.2326 O.2       9 UNK        -0.5270 
     30 CA         23.9271  -47.9791  -55.0418 C.3       8 UNK         0.0284 
     31 CB         23.6661  -49.2471  -54.2127 C.3       8 UNK        -0.1977 
     32 N          25.0704  -47.2586  -54.4720 N.am      8 UNK        -0.4342 
     33 C          25.5061  -46.0588  -54.8809 C.2       8 UNK         0.5039 
     34 O          24.9308  -45.3818  -55.7328 O.2       8 UNK        -0.5547 
     35 CA         26.8357  -45.5504  -54.2946 C.3       7 UNK         0.0281 
     36 CB         26.5731  -44.5737  -53.1378 C.3       7 UNK        -0.1963 
     37 N          27.7735  -46.5927  -53.8522 N.am      7 UNK        -0.4444 
     38 C          28.2352  -47.5996  -54.6078 C.2       7 UNK         0.5104 
     39 O          27.8105  -47.8732  -55.7308 O.2       7 UNK        -0.5100 
     40 CA         29.3639  -48.4558  -54.0104 C.3       6 UNK         0.0396 
     41 CB         28.9128  -49.9160  -53.8525 C.3       6 UNK        -0.1801 
     42 N          30.5613  -48.3878  -54.8547 N.am      6 UNK        -0.4747 
     43 C          31.2528  -47.2527  -55.0561 C.2       6 UNK         0.5012 
     44 O          30.9789  -46.2145  -54.4621 O.2       6 UNK        -0.5003 
     45 CA         32.4328  -47.2452  -56.0528 C.3       5 UNK         0.0782 
     46 C46        33.6929  -46.5226  -55.4867 C.3       11 UNK        -0.0868 
     47 S47        34.4395  -45.4125  -56.7255 S.3       11 UNK        -0.2515 
     48 C48        34.1934  -43.7639  -55.9733 C.3       11 UNK         0.0199 
     49 N          32.7701  -48.6014  -56.4832 N.am      5 UNK        -0.4607 
     50 C          32.4171  -49.1657  -57.6439 C.2       4 UNK         0.5031 
     51 O          31.7841  -48.5836  -58.5240 O.2       4 UNK        -0.5119 
     52 CA         32.8333  -50.6346  -57.8665 C.3       4 UNK         0.0263 
     53 CB         34.0371  -50.7121  -58.8198 C.3       4 UNK        -0.1967 
     54 N          33.1556  -51.3557  -56.6291 N.am      4 UNK        -0.4237 
     55 C          32.2745  -51.6365  -55.6596 C.2       3 UNK         0.4908 
     56 O          31.0769  -51.3624  -55.7356 O.2       3 UNK        -0.5102 
     57 CA         32.8084  -52.2811  -54.3657 C.3       3 UNK         0.0241 
     58 CB         34.2961  -52.7004  -54.4256 C.3       3 UNK        -0.1971 
     59 N          32.5591  -51.4157  -53.2047 N.am      3 UNK        -0.4139 
     60 C          32.9927  -50.1575  -53.0346 C.2       2 UNK         0.5016 
     61 O          33.7158  -49.5588  -53.8378 O.2       2 UNK        -0.5319 
     62 CA         32.5402  -49.4505  -51.7501 C.3       2 UNK         0.0286 
     63 CB         33.2618  -50.0182  -50.5144 C.3       2 UNK        -0.1963 
     64 N          32.8294  -48.0234  -51.8635 N.am      2 UNK        -0.4790 
     65 C          32.1204  -47.0337  -51.3050 C.2       1 UNK         0.5024 
     66 O          31.1304  -47.2305  -50.5975 O.2       1 UNK        -0.4888 
     67 H67        36.6322  -45.3210  -51.3675 H         1 UNK         0.0892 
     68 H68        36.6385  -44.7554  -49.6963 H         1 UNK         0.0892 
     69 H69        36.7592  -46.4820  -50.0449 H         1 UNK         0.0892 
     70 H70        34.6037  -45.2952  -52.2626 H         1 UNK         0.3107 
     71 H71        32.4671  -45.4237  -52.6351 H         1 UNK         0.0773 
     72 H72        31.7067  -44.7495  -49.7745 H         1 UNK         0.0680 
     73 H73        32.4649  -43.5671  -50.7911 H         1 UNK         0.0680 
     74 H74        31.3976  -41.9897  -52.0781 H         1 UNK         0.0650 
     75 H75        29.7319  -41.9569  -52.5758 H         1 UNK         0.0650 
     76 H76        33.1156  -43.1176  -53.5410 H         1 UNK         0.1397 
     77 H77        32.0373  -43.7293  -57.6497 H         1 UNK         0.1363 
     78 H78        29.0165  -42.8045  -54.7510 H         1 UNK         0.1355 
     79 H79        28.4669  -42.7616  -57.1090 H         1 UNK         0.0707 
     80 H80        29.7489  -42.7858  -58.2985 H         1 UNK         0.0707 
     81 H81        27.9824  -43.6969  -59.6559 H         1 UNK         0.1034 
     82 H82        28.0703  -45.3757  -60.0863 H         1 UNK         0.1034 
     83 H83        26.1000  -44.2252  -58.0553 H         1 UNK         0.0482 
     84 H84        23.8659  -45.6947  -59.6172 H         1 UNK         0.3460 
     85 H85        23.5160  -44.5478  -60.8885 H         1 UNK         0.3460 
     86 H86        25.6542  -46.2689  -57.4597 H         1 UNK         0.2989 
     87 H87        24.8625  -49.1433  -58.9349 H         1 UNK         0.0559 
     88 H88        27.7859  -49.2529  -58.0163 H         1 UNK         0.0848 
     89 H89        27.1304  -49.9237  -59.5012 H         1 UNK         0.0848 
     90 H90        26.6581  -50.6073  -57.9549 H         1 UNK         0.0848 
     91 H91        26.1293  -48.3212  -56.3717 H         1 UNK         0.3144 
     92 H92        23.0539  -47.3286  -54.9587 H         1 UNK         0.0727 
     93 H93        23.4577  -49.0053  -53.1703 H         1 UNK         0.0790 
     94 H94        22.8017  -49.7919  -54.5953 H         1 UNK         0.0790 
     95 H95        24.5175  -49.9287  -54.2377 H         1 UNK         0.0790 
     96 H96        25.6103  -47.7412  -53.7685 H         1 UNK         0.3215 
     97 H97        27.3380  -45.0003  -55.0935 H         1 UNK         0.0863 
     98 H98        25.8830  -43.7848  -53.4406 H         1 UNK         0.0808 
     99 H99        27.4922  -44.0859  -52.8143 H         1 UNK         0.0808 
    100 H100       26.1356  -45.0772  -52.2749 H         1 UNK         0.0808 
    101 H101       28.2128  -46.4397  -52.9553 H         1 UNK         0.3118 
    102 H102       29.6226  -48.0716  -53.0214 H         1 UNK         0.0546 
    103 H103       28.0330  -49.9863  -53.2119 H         1 UNK         0.0828 
    104 H104       29.6920  -50.5283  -53.4005 H         1 UNK         0.0828 
    105 H105       28.6529  -50.3633  -54.8130 H         1 UNK         0.0828 
    106 H106       30.8000  -49.2196  -55.3815 H         1 UNK         0.3005 
    107 H107       32.0508  -46.6747  -56.9031 H         1 UNK         0.1257 
    108 H108       34.4515  -47.2398  -55.1689 H         1 UNK         0.0775 
    109 H109       33.4800  -45.9360  -54.5952 H         1 UNK         0.0775 
    110 H110       34.8222  -43.6888  -55.0849 H         1 UNK         0.0840 
    111 H111       34.5548  -43.0035  -56.6670 H         1 UNK         0.0840 
    112 H112       33.2613  -49.1580  -55.7907 H         1 UNK         0.2987 
    113 H113       31.9886  -51.1412  -58.3384 H         1 UNK         0.0785 
    114 H114       33.8187  -50.2138  -59.7655 H         1 UNK         0.0798 
    115 H115       34.2944  -51.7455  -59.0530 H         1 UNK         0.0798 
    116 H116       34.9196  -50.2316  -58.3953 H         1 UNK         0.0798 
    117 H117       34.1255  -51.5936  -56.4790 H         1 UNK         0.3079 
    118 H118       32.2169  -53.1853  -54.2139 H         1 UNK         0.0794 
    119 H119       34.5933  -53.2034  -53.5053 H         1 UNK         0.0786 
    120 H120       34.9652  -51.8497  -54.5603 H         1 UNK         0.0786 
    121 H121       34.4773  -53.4024  -55.2407 H         1 UNK         0.0786 
    122 H122       31.9567  -51.8123  -52.4970 H         1 UNK         0.3032 
    123 H123       31.4624  -49.5963  -51.6480 H         1 UNK         0.1094 
    124 H124       34.3437  -49.9039  -50.5940 H         1 UNK         0.0794 
    125 H125       32.9406  -49.5139  -49.6026 H         1 UNK         0.0794 
    126 H126       33.0531  -51.0807  -50.3844 H         1 UNK         0.0794 
    127 H127       33.6019  -47.8075  -52.4804 H         1 UNK         0.3016 
@<TRIPOS>BOND
     1    1    2 1    
     2    1   67 1    
     3    1   68 1    
     4    1   69 1    
     5    2    3 2    
     6    2    4 am   BACKBONE|DICT|INTERRES
     7    4    5 1    
     8    4   70 1    
     9    5    6 1    
    10    5   65 1    
    11    5   71 1    
    12    6    7 1    
    13    6   72 1    
    14    6   73 1    
    15    7    8 1    
    16    8    9 1    
    17    8   74 1    
    18    8   75 1    
    19    9   10 ar   
    20    9   14 ar   
    21   10   11 ar   
    22   10   76 1    
    23   11   12 ar   
    24   11   48 1    
    25   12   13 ar   
    26   12   77 1    
    27   13   14 ar   
    28   13   15 1    
    29   14   78 1    
    30   15   16 1    
    31   15   79 1    
    32   15   80 1    
    33   16   17 1    
    34   17   18 1    
    35   17   81 1    
    36   17   82 1    
    37   18   19 1    
    38   18   22 1    
    39   18   83 1    
    40   19   20 am   BACKBONE|DICT|INTERRES
    41   19   21 2    
    42   20   84 1    
    43   20   85 1    
    44   22   23 am   BACKBONE|DICT|INTERRES
    45   22   86 1    
    46   23   24 2    
    47   23   25 1    
    48   25   26 1    
    49   25   27 1    
    50   25   87 1    
    51   26   88 1    
    52   26   89 1    
    53   26   90 1    
    54   27   28 am   BACKBONE|DICT|INTERRES
    55   27   91 1    
    56   28   29 2    
    57   28   30 1    
    58   30   31 1    
    59   30   32 1    
    60   30   92 1    
    61   31   93 1    
    62   31   94 1    
    63   31   95 1    
    64   32   33 am   BACKBONE|DICT|INTERRES
    65   32   96 1    
    66   33   34 2    
    67   33   35 1    
    68   35   36 1    
    69   35   37 1    
    70   35   97 1    
    71   36   98 1    
    72   36   99 1    
    73   36  100 1    
    74   37   38 am   BACKBONE|DICT|INTERRES
    75   37  101 1    
    76   38   39 2    
    77   38   40 1    
    78   40   41 1    
    79   40   42 1    
    80   40  102 1    
    81   41  103 1    
    82   41  104 1    
    83   41  105 1    
    84   42   43 am   BACKBONE|DICT|INTERRES
    85   42  106 1    
    86   43   44 2    
    87   43   45 1    
    88   45   46 1    
    89   45   49 1    
    90   45  107 1    
    91   46   47 1    
    92   46  108 1    
    93   46  109 1    
    94   47   48 1    
    95   48  110 1    
    96   48  111 1    
    97   49   50 am   BACKBONE|DICT|INTERRES
    98   49  112 1    
    99   50   51 2    
   100   50   52 1    
   101   52   53 1    
   102   52   54 1    
   103   52  113 1    
   104   53  114 1    
   105   53  115 1    
   106   53  116 1    
   107   54   55 am   BACKBONE|DICT|INTERRES
   108   54  117 1    
   109   55   56 2    
   110   55   57 1    
   111   57   58 1    
   112   57   59 1    
   113   57  118 1    
   114   58  119 1    
   115   58  120 1    
   116   58  121 1    
   117   59   60 am   BACKBONE|DICT|INTERRES
   118   59  122 1    
   119   60   61 2    
   120   60   62 1    
   121   62   63 1    
   122   62   64 1    
   123   62  123 1    
   124   63  124 1    
   125   63  125 1    
   126   63  126 1    
   127   64   65 am   BACKBONE|DICT|INTERRES
   128   64  127 1    
   129   65   66 2    
@<TRIPOS>SUBSTRUCTURE
     1 UNK         1 GROUP             0       ****    0 ROOT    
