@<TRIPOS>MOLECULE
3R134
127   129    1
SMALL
USER_CHARGES


@<TRIPOS>ATOM
      1 CA         35.4802  -44.3748  -47.6524 C.3       0 UNK        -0.1968 
      2 C          35.4559  -44.7054  -49.1377 C.2       0 UNK         0.4852 
      3 O          36.5162  -44.8602  -49.7468 O.2       0 UNK        -0.5359 
      4 N          34.2566  -44.8051  -49.7248 N.am      1 UNK        -0.4300 
      5 CA         34.0374  -45.1606  -51.1310 C.3       1 UNK         0.0863 
      6 C6         32.6014  -44.8176  -51.6035 C.3       11 UNK        -0.0953 
      7 S7         32.1698  -43.0650  -51.3524 S.3       11 UNK        -0.2369 
      8 C8         32.8997  -42.2897  -52.8294 C.3       11 UNK         0.0226 
      9 C9         32.1746  -42.6643  -54.1153 C.ar      11 UNK        -0.0699 
     10 C10        32.8479  -43.3377  -55.1394 C.ar      11 UNK        -0.0804 
     11 C11        32.2044  -43.6210  -56.3492 C.ar      11 UNK        -0.0871 
     12 C12        30.8679  -43.2390  -56.5212 C.ar      11 UNK        -0.1008 
     13 C13        30.1815  -42.5763  -55.4988 C.ar      11 UNK        -0.0735 
     14 C14        30.8420  -42.2887  -54.3018 C.ar      11 UNK        -0.0945 
     15 C15        28.7402  -42.1284  -55.6872 C.3       11 UNK         0.0169 
     16 S16        27.5712  -43.2863  -54.9105 S.3       11 UNK        -0.2669 
     17 C17        27.2468  -44.4504  -56.2766 C.3       11 UNK        -0.0850 
     18 CA         25.8464  -44.2409  -56.9037 C.3       10 UNK         0.0855 
     19 C          25.8151  -43.0287  -57.8739 C.2       10 UNK         0.5543 
     20 N          25.3393  -41.8777  -57.4195 N.am      10 UNK        -0.7343 
     21 O          26.2507  -43.1153  -59.0201 O.2       10 UNK        -0.5027 
     22 N          25.3834  -45.4686  -57.5594 N.am      10 UNK        -0.4495 
     23 C          24.1095  -45.7339  -57.8660 C.2       10 UNK         0.4903 
     24 O          23.1718  -45.0025  -57.5447 O.2       10 UNK        -0.4860 
     25 CA         23.7927  -47.0304  -58.6387 C.3       9 UNK         0.0227 
     26 CB         23.3754  -46.7129  -60.0887 C.3       9 UNK        -0.1964 
     27 N          24.8256  -48.0780  -58.6070 N.am      9 UNK        -0.4231 
     28 C          26.0534  -48.0798  -59.1418 C.2       9 UNK         0.5014 
     29 O          26.5587  -47.1015  -59.6937 O.2       9 UNK        -0.5270 
     30 CA         26.8420  -49.4003  -59.0297 C.3       8 UNK         0.0284 
     31 CB         28.1584  -49.3642  -59.8281 C.3       8 UNK        -0.1977 
     32 N          27.1302  -49.7791  -57.6422 N.am      8 UNK        -0.4342 
     33 C          26.2374  -50.2444  -56.7571 C.2       8 UNK         0.5039 
     34 O          25.0432  -50.4033  -57.0185 O.2       8 UNK        -0.5547 
     35 CA         26.7471  -50.5907  -55.3479 C.3       7 UNK         0.0281 
     36 CB         27.2811  -52.0313  -55.3120 C.3       7 UNK        -0.1963 
     37 N          27.7779  -49.6709  -54.8612 N.am      7 UNK        -0.4444 
     38 C          27.5582  -48.3924  -54.5196 C.2       7 UNK         0.5104 
     39 O          26.4476  -47.8612  -54.5296 O.2       7 UNK        -0.5100 
     40 CA         28.7903  -47.5570  -54.1218 C.3       6 UNK         0.0396 
     41 CB         29.1768  -47.8069  -52.6562 C.3       6 UNK        -0.1801 
     42 N          29.9478  -47.8048  -54.9832 N.am      6 UNK        -0.4747 
     43 C          29.9822  -47.5829  -56.3064 C.2       6 UNK         0.5012 
     44 O          29.0498  -47.1018  -56.9490 O.2       6 UNK        -0.5003 
     45 CA         31.2526  -48.0396  -57.0461 C.3       5 UNK         0.0782 
     46 C46        32.3795  -46.9800  -56.9800 C.3       11 UNK        -0.0868 
     47 S47        32.1451  -45.6906  -58.2458 S.3       11 UNK        -0.2515 
     48 C48        32.9870  -44.2636  -57.4905 C.3       11 UNK         0.0199 
     49 N          31.6978  -49.3545  -56.5769 N.am      5 UNK        -0.4607 
     50 C          31.0428  -50.4984  -56.8203 C.2       4 UNK         0.5031 
     51 O          30.0054  -50.5648  -57.4767 O.2       4 UNK        -0.5119 
     52 CA         31.6201  -51.7798  -56.1982 C.3       4 UNK         0.0263 
     53 CB         32.7605  -52.3373  -57.0647 C.3       4 UNK        -0.1967 
     54 N          32.0942  -51.5770  -54.8284 N.am      4 UNK        -0.4237 
     55 C          31.3007  -51.2594  -53.7957 C.2       3 UNK         0.4908 
     56 O          30.0783  -51.1474  -53.8777 O.2       3 UNK        -0.5102 
     57 CA         31.9931  -50.9712  -52.4547 C.3       3 UNK         0.0241 
     58 CB         32.2299  -52.2758  -51.6773 C.3       3 UNK        -0.1971 
     59 N          33.2563  -50.2354  -52.5838 N.am      3 UNK        -0.4139 
     60 C          33.3824  -49.0259  -53.1472 C.2       2 UNK         0.5016 
     61 O          32.4630  -48.4234  -53.7074 O.2       2 UNK        -0.5319 
     62 CA         34.7740  -48.3770  -53.0953 C.3       2 UNK         0.0286 
     63 CB         35.4291  -48.3938  -54.4859 C.3       2 UNK        -0.1963 
     64 N          34.6681  -46.9949  -52.6257 N.am      2 UNK        -0.4790 
     65 C          34.3225  -46.6548  -51.3766 C.2       1 UNK         0.5024 
     66 O          34.1828  -47.4710  -50.4609 O.2       1 UNK        -0.4888 
     67 H67        34.4768  -44.2464  -47.2465 H         1 UNK         0.0892 
     68 H68        36.0348  -43.4523  -47.4822 H         1 UNK         0.0892 
     69 H69        35.9702  -45.1750  -47.0983 H         1 UNK         0.0892 
     70 H70        33.4196  -44.6795  -49.1743 H         1 UNK         0.3107 
     71 H71        34.7444  -44.5849  -51.7322 H         1 UNK         0.0773 
     72 H72        32.4656  -45.0669  -52.6578 H         1 UNK         0.0680 
     73 H73        31.8684  -45.4175  -51.0603 H         1 UNK         0.0680 
     74 H74        32.8577  -41.2065  -52.7079 H         1 UNK         0.0650 
     75 H75        33.9581  -42.5474  -52.8851 H         1 UNK         0.0650 
     76 H76        33.8858  -43.6109  -55.0067 H         1 UNK         0.1397 
     77 H77        30.3685  -43.4436  -57.4584 H         1 UNK         0.1363 
     78 H78        30.3195  -41.7632  -53.5139 H         1 UNK         0.1355 
     79 H79        28.5057  -42.0045  -56.7455 H         1 UNK         0.0707 
     80 H80        28.6060  -41.1448  -55.2345 H         1 UNK         0.0707 
     81 H81        27.2985  -45.4496  -55.8456 H         1 UNK         0.1034 
     82 H82        28.0392  -44.4148  -57.0268 H         1 UNK         0.1034 
     83 H83        25.1456  -44.0444  -56.0890 H         1 UNK         0.0482 
     84 H84        24.9988  -41.7956  -56.4741 H         1 UNK         0.3460 
     85 H85        25.3210  -41.0767  -58.0309 H         1 UNK         0.3460 
     86 H86        26.0962  -46.0635  -57.9651 H         1 UNK         0.2989 
     87 H87        22.9275  -47.4702  -58.1404 H         1 UNK         0.0559 
     88 H88        23.0719  -47.6137  -60.6221 H         1 UNK         0.0848 
     89 H89        24.1838  -46.2447  -60.6512 H         1 UNK         0.0848 
     90 H90        22.5290  -46.0250  -60.1094 H         1 UNK         0.0848 
     91 H91        24.5766  -48.9203  -58.0898 H         1 UNK         0.3144 
     92 H92        26.2172  -50.1800  -59.4704 H         1 UNK         0.0727 
     93 H93        28.6524  -50.3358  -59.8231 H         1 UNK         0.0790 
     94 H94        28.8546  -48.6303  -59.4206 H         1 UNK         0.0790 
     95 H95        27.9784  -49.1009  -60.8712 H         1 UNK         0.0790 
     96 H96        28.1022  -49.7183  -57.3575 H         1 UNK         0.3215 
     97 H97        25.8952  -50.5288  -54.6673 H         1 UNK         0.0863 
     98 H98        27.5572  -52.3261  -54.2994 H         1 UNK         0.0808 
     99 H99        28.1602  -52.1517  -55.9463 H         1 UNK         0.0808 
    100 H100       26.5263  -52.7376  -55.6604 H         1 UNK         0.0808 
    101 H101       28.7128  -50.0528  -54.7430 H         1 UNK         0.3118 
    102 H102       28.5312  -46.5018  -54.2194 H         1 UNK         0.0546 
    103 H103       28.3469  -47.5698  -51.9894 H         1 UNK         0.0828 
    104 H104       30.0220  -47.1862  -52.3576 H         1 UNK         0.0828 
    105 H105       29.4483  -48.8478  -52.4817 H         1 UNK         0.0828 
    106 H106       30.7863  -48.1678  -54.5331 H         1 UNK         0.3005 
    107 H107       30.9736  -48.1716  -58.0947 H         1 UNK         0.1257 
    108 H108       33.3465  -47.4432  -57.1814 H         1 UNK         0.0775 
    109 H109       32.4577  -46.5356  -55.9851 H         1 UNK         0.0775 
    110 H110       33.9796  -44.5753  -57.1613 H         1 UNK         0.0840 
    111 H111       33.1460  -43.5095  -58.2623 H         1 UNK         0.0840 
    112 H112       32.4973  -49.3685  -55.9613 H         1 UNK         0.2987 
    113 H113       30.8193  -52.5221  -56.1690 H         1 UNK         0.0785 
    114 H114       33.6074  -51.6516  -57.1135 H         1 UNK         0.0798 
    115 H115       32.4224  -52.5108  -58.0874 H         1 UNK         0.0798 
    116 H116       33.1217  -53.2910  -56.6792 H         1 UNK         0.0798 
    117 H117       33.0878  -51.6515  -54.6673 H         1 UNK         0.3079 
    118 H118       31.3156  -50.3470  -51.8686 H         1 UNK         0.0794 
    119 H119       32.9351  -52.9316  -52.1894 H         1 UNK         0.0786 
    120 H120       31.2986  -52.8309  -51.5546 H         1 UNK         0.0786 
    121 H121       32.6191  -52.0777  -50.6784 H         1 UNK         0.0786 
    122 H122       34.0655  -50.6552  -52.1487 H         1 UNK         0.3032 
    123 H123       35.4092  -48.9320  -52.4009 H         1 UNK         0.1094 
    124 H124       36.4320  -47.9672  -54.4561 H         1 UNK         0.0794 
    125 H125       35.5238  -49.4133  -54.8623 H         1 UNK         0.0794 
    126 H126       34.8473  -47.8288  -55.2148 H         1 UNK         0.0794 
    127 H127       34.7265  -46.2752  -53.3310 H         1 UNK         0.3016 
@<TRIPOS>BOND
     1    1    2 1    
     2    1   67 1    
     3    1   68 1    
     4    1   69 1    
     5    2    3 2    
     6    2    4 am   BACKBONE|DICT|INTERRES
     7    4    5 1    
     8    4   70 1    
     9    5    6 1    
    10    5   65 1    
    11    5   71 1    
    12    6    7 1    
    13    6   72 1    
    14    6   73 1    
    15    7    8 1    
    16    8    9 1    
    17    8   74 1    
    18    8   75 1    
    19    9   10 ar   
    20    9   14 ar   
    21   10   11 ar   
    22   10   76 1    
    23   11   12 ar   
    24   11   48 1    
    25   12   13 ar   
    26   12   77 1    
    27   13   14 ar   
    28   13   15 1    
    29   14   78 1    
    30   15   16 1    
    31   15   79 1    
    32   15   80 1    
    33   16   17 1    
    34   17   18 1    
    35   17   81 1    
    36   17   82 1    
    37   18   19 1    
    38   18   22 1    
    39   18   83 1    
    40   19   20 am   BACKBONE|DICT|INTERRES
    41   19   21 2    
    42   20   84 1    
    43   20   85 1    
    44   22   23 am   BACKBONE|DICT|INTERRES
    45   22   86 1    
    46   23   24 2    
    47   23   25 1    
    48   25   26 1    
    49   25   27 1    
    50   25   87 1    
    51   26   88 1    
    52   26   89 1    
    53   26   90 1    
    54   27   28 am   BACKBONE|DICT|INTERRES
    55   27   91 1    
    56   28   29 2    
    57   28   30 1    
    58   30   31 1    
    59   30   32 1    
    60   30   92 1    
    61   31   93 1    
    62   31   94 1    
    63   31   95 1    
    64   32   33 am   BACKBONE|DICT|INTERRES
    65   32   96 1    
    66   33   34 2    
    67   33   35 1    
    68   35   36 1    
    69   35   37 1    
    70   35   97 1    
    71   36   98 1    
    72   36   99 1    
    73   36  100 1    
    74   37   38 am   BACKBONE|DICT|INTERRES
    75   37  101 1    
    76   38   39 2    
    77   38   40 1    
    78   40   41 1    
    79   40   42 1    
    80   40  102 1    
    81   41  103 1    
    82   41  104 1    
    83   41  105 1    
    84   42   43 am   BACKBONE|DICT|INTERRES
    85   42  106 1    
    86   43   44 2    
    87   43   45 1    
    88   45   46 1    
    89   45   49 1    
    90   45  107 1    
    91   46   47 1    
    92   46  108 1    
    93   46  109 1    
    94   47   48 1    
    95   48  110 1    
    96   48  111 1    
    97   49   50 am   BACKBONE|DICT|INTERRES
    98   49  112 1    
    99   50   51 2    
   100   50   52 1    
   101   52   53 1    
   102   52   54 1    
   103   52  113 1    
   104   53  114 1    
   105   53  115 1    
   106   53  116 1    
   107   54   55 am   BACKBONE|DICT|INTERRES
   108   54  117 1    
   109   55   56 2    
   110   55   57 1    
   111   57   58 1    
   112   57   59 1    
   113   57  118 1    
   114   58  119 1    
   115   58  120 1    
   116   58  121 1    
   117   59   60 am   BACKBONE|DICT|INTERRES
   118   59  122 1    
   119   60   61 2    
   120   60   62 1    
   121   62   63 1    
   122   62   64 1    
   123   62  123 1    
   124   63  124 1    
   125   63  125 1    
   126   63  126 1    
   127   64   65 am   BACKBONE|DICT|INTERRES
   128   64  127 1    
   129   65   66 2    
@<TRIPOS>SUBSTRUCTURE
     1 UNK         1 GROUP             0       ****    0 ROOT    
