@<TRIPOS>MOLECULE
3R134
127   129    1
SMALL
USER_CHARGES


@<TRIPOS>ATOM
      1 CA         32.6063  -48.9302  -58.3092 C.3       0 UNK        -0.1968 
      2 C          32.9175  -48.6002  -56.8573 C.2       0 UNK         0.4852 
      3 O          32.7274  -49.4525  -55.9928 O.2       0 UNK        -0.5359 
      4 N          33.4127  -47.3804  -56.5921 N.am      1 UNK        -0.4300 
      5 CA         33.7176  -46.8111  -55.2670 C.3       1 UNK         0.0863 
      6 C6         34.3075  -45.3846  -55.4249 C.3       11 UNK        -0.0953 
      7 S7         34.4024  -44.4263  -53.8725 S.3       11 UNK        -0.2369 
      8 C8         33.6458  -42.8372  -54.3385 C.3       11 UNK         0.0226 
      9 C9         32.1286  -42.8786  -54.2380 C.ar      11 UNK        -0.0699 
     10 C10        31.5144  -42.8063  -52.9849 C.ar      11 UNK        -0.0804 
     11 C11        30.1219  -42.8315  -52.8732 C.ar      11 UNK        -0.0871 
     12 C12        29.3395  -42.9234  -54.0281 C.ar      11 UNK        -0.1008 
     13 C13        29.9421  -42.9890  -55.2877 C.ar      11 UNK        -0.0735 
     14 C14        31.3377  -42.9679  -55.3872 C.ar      11 UNK        -0.0945 
     15 C15        29.0888  -43.1227  -56.5385 C.3       11 UNK         0.0169 
     16 S16        28.0541  -41.6583  -56.8494 S.3       11 UNK        -0.2669 
     17 C17        27.5308  -41.9770  -58.5716 C.3       11 UNK        -0.0850 
     18 CA         26.1649  -42.7037  -58.7058 C.3       10 UNK         0.0855 
     19 C          25.7902  -42.8467  -60.2114 C.2       10 UNK         0.5543 
     20 N          25.8799  -44.0308  -60.8085 N.am      10 UNK        -0.7343 
     21 O          25.4162  -41.8631  -60.8451 O.2       10 UNK        -0.5027 
     22 N          26.1432  -43.9740  -57.9648 N.am      10 UNK        -0.4495 
     23 C          25.0544  -44.7144  -57.7229 C.2       10 UNK         0.4903 
     24 O          23.9080  -44.3345  -57.9660 O.2       10 UNK        -0.4860 
     25 CA         25.2762  -46.1135  -57.1077 C.3       9 UNK         0.0227 
     26 CB         24.3014  -47.1593  -57.6872 C.3       9 UNK        -0.1964 
     27 N          26.6579  -46.6143  -57.1778 N.am      9 UNK        -0.4231 
     28 C          27.4034  -46.8396  -58.2721 C.2       9 UNK         0.5014 
     29 O          27.0390  -46.5766  -59.4194 O.2       9 UNK        -0.5270 
     30 CA         28.8034  -47.4329  -58.0425 C.3       8 UNK         0.0284 
     31 CB         29.8058  -46.3421  -57.6385 C.3       8 UNK        -0.1977 
     32 N          28.7922  -48.4877  -57.0282 N.am      8 UNK        -0.4342 
     33 C          28.4218  -49.7530  -57.2667 C.2       8 UNK         0.5039 
     34 O          28.1352  -50.1867  -58.3833 O.2       8 UNK        -0.5547 
     35 CA         28.3429  -50.6930  -56.0540 C.3       7 UNK         0.0281 
     36 CB         29.7063  -51.3354  -55.7694 C.3       7 UNK        -0.1963 
     37 N          27.8588  -50.0068  -54.8544 N.am      7 UNK        -0.4444 
     38 C          26.5709  -49.6916  -54.6537 C.2       7 UNK         0.5104 
     39 O          25.6657  -49.9953  -55.4307 O.2       7 UNK        -0.5100 
     40 CA         26.2162  -48.9085  -53.3774 C.3       6 UNK         0.0396 
     41 CB         25.6998  -49.8653  -52.2912 C.3       6 UNK        -0.1801 
     42 N          27.3130  -48.1088  -52.8276 N.am      6 UNK        -0.4747 
     43 C          27.8804  -47.0534  -53.4290 C.2       6 UNK         0.5012 
     44 O          27.5945  -46.6703  -54.5632 O.2       6 UNK        -0.5003 
     45 CA         28.9738  -46.3210  -52.6304 C.3       5 UNK         0.0782 
     46 C46        28.3109  -45.3314  -51.6385 C.3       11 UNK        -0.0868 
     47 S47        29.5170  -44.3735  -50.6609 S.3       11 UNK        -0.2515 
     48 C48        29.4709  -42.7603  -51.5014 C.3       11 UNK         0.0199 
     49 N          29.9096  -47.2300  -51.9557 N.am      5 UNK        -0.4607 
     50 C          30.6096  -48.2207  -52.5245 C.2       4 UNK         0.5031 
     51 O          30.4808  -48.5597  -53.7023 O.2       4 UNK        -0.5119 
     52 CA         31.6285  -48.9128  -51.6023 C.3       4 UNK         0.0263 
     53 CB         30.9579  -49.5608  -50.3703 C.3       4 UNK        -0.1967 
     54 N          32.5053  -49.8534  -52.3101 N.am      4 UNK        -0.4237 
     55 C          32.2290  -51.0841  -52.7716 C.2       3 UNK         0.4908 
     56 O          31.1484  -51.6543  -52.6131 O.2       3 UNK        -0.5102 
     57 CA         33.3689  -51.8195  -53.5080 C.3       3 UNK         0.0241 
     58 CB         32.8532  -52.7620  -54.6113 C.3       3 UNK        -0.1971 
     59 N          34.3139  -50.8734  -54.1032 N.am      3 UNK        -0.4139 
     60 C          35.5665  -50.6473  -53.6840 C.2       2 UNK         0.5016 
     61 O          36.1083  -51.2799  -52.7768 O.2       2 UNK        -0.5319 
     62 CA         36.3515  -49.5077  -54.3681 C.3       2 UNK         0.0286 
     63 CB         37.3292  -50.0800  -55.4071 C.3       2 UNK        -0.1963 
     64 N          35.5098  -48.4932  -55.0139 N.am      2 UNK        -0.4790 
     65 C          34.6180  -47.7120  -54.3847 C.2       1 UNK         0.5024 
     66 O          34.4534  -47.7314  -53.1639 O.2       1 UNK        -0.4888 
     67 H67        31.5596  -49.2172  -58.4090 H         1 UNK         0.0892 
     68 H68        33.2208  -49.7658  -58.6428 H         1 UNK         0.0892 
     69 H69        32.7912  -48.0847  -58.9714 H         1 UNK         0.0892 
     70 H70        33.5687  -46.7520  -57.3670 H         1 UNK         0.3107 
     71 H71        32.7594  -46.7266  -54.7493 H         1 UNK         0.0773 
     72 H72        33.6997  -44.8203  -56.1336 H         1 UNK         0.0680 
     73 H73        35.3071  -45.4287  -55.8613 H         1 UNK         0.0680 
     74 H74        34.0252  -42.0641  -53.6689 H         1 UNK         0.0650 
     75 H75        33.9673  -42.5507  -55.3410 H         1 UNK         0.0650 
     76 H76        32.1231  -42.7394  -52.0933 H         1 UNK         0.1397 
     77 H77        28.2609  -42.9458  -53.9517 H         1 UNK         0.1363 
     78 H78        31.8101  -43.0229  -56.3584 H         1 UNK         0.1355 
     79 H79        28.4432  -43.9929  -56.4264 H         1 UNK         0.0707 
     80 H80        29.7249  -43.3029  -57.4058 H         1 UNK         0.0707 
     81 H81        28.3123  -42.5307  -59.0953 H         1 UNK         0.1034 
     82 H82        27.4810  -41.0068  -59.0704 H         1 UNK         0.1034 
     83 H83        25.4041  -42.0619  -58.2573 H         1 UNK         0.0482 
     84 H84        25.6343  -44.1124  -61.7822 H         1 UNK         0.3460 
     85 H85        26.1996  -44.8464  -60.2984 H         1 UNK         0.3460 
     86 H86        27.0398  -44.3717  -57.7385 H         1 UNK         0.2989 
     87 H87        25.0544  -46.0102  -56.0446 H         1 UNK         0.0559 
     88 H88        24.4295  -47.2769  -58.7638 H         1 UNK         0.0848 
     89 H89        23.2639  -46.8724  -57.5123 H         1 UNK         0.0848 
     90 H90        24.4470  -48.1354  -57.2240 H         1 UNK         0.0848 
     91 H91        27.0820  -46.7876  -56.2664 H         1 UNK         0.3144 
     92 H92        29.1383  -47.8560  -58.9923 H         1 UNK         0.0727 
     93 H93        30.8266  -46.7143  -57.6734 H         1 UNK         0.0790 
     94 H94        29.6257  -45.9783  -56.6269 H         1 UNK         0.0790 
     95 H95        29.7568  -45.4945  -58.3226 H         1 UNK         0.0790 
     96 H96        29.0105  -48.2231  -56.0768 H         1 UNK         0.3215 
     97 H97        27.6435  -51.4942  -56.3037 H         1 UNK         0.0863 
     98 H98        29.6350  -52.0835  -54.9798 H         1 UNK         0.0808 
     99 H99        30.4415  -50.5940  -55.4580 H         1 UNK         0.0808 
    100 H100       30.0994  -51.8338  -56.6564 H         1 UNK         0.0808 
    101 H101       28.5548  -49.7011  -54.1843 H         1 UNK         0.3118 
    102 H102       25.4080  -48.2212  -53.6368 H         1 UNK         0.0546 
    103 H103       24.8599  -50.4568  -52.6588 H         1 UNK         0.0828 
    104 H104       25.3488  -49.3208  -51.4145 H         1 UNK         0.0828 
    105 H105       26.4725  -50.5640  -51.9678 H         1 UNK         0.0828 
    106 H106       27.6412  -48.3618  -51.9064 H         1 UNK         0.3005 
    107 H107       29.5602  -45.7482  -53.3522 H         1 UNK         0.1257 
    108 H108       27.6757  -45.8687  -50.9313 H         1 UNK         0.0775 
    109 H109       27.6485  -44.6424  -52.1662 H         1 UNK         0.0775 
    110 H110       28.4405  -42.4084  -51.5742 H         1 UNK         0.0840 
    111 H111       29.9969  -42.0279  -50.8871 H         1 UNK         0.0840 
    112 H112       30.0926  -47.0064  -50.9881 H         1 UNK         0.2987 
    113 H113       32.2945  -48.1277  -51.2406 H         1 UNK         0.0785 
    114 H114       30.1659  -50.2545  -50.6540 H         1 UNK         0.0798 
    115 H115       30.5075  -48.8087  -49.7221 H         1 UNK         0.0798 
    116 H116       31.6819  -50.1081  -49.7667 H         1 UNK         0.0798 
    117 H117       33.4058  -49.4607  -52.5593 H         1 UNK         0.3079 
    118 H118       33.8692  -52.4325  -52.7559 H         1 UNK         0.0794 
    119 H119       32.3681  -52.2083  -55.4146 H         1 UNK         0.0786 
    120 H120       32.1316  -53.4801  -54.2201 H         1 UNK         0.0786 
    121 H121       33.6701  -53.3342  -55.0509 H         1 UNK         0.0786 
    122 H122       33.9212  -50.2840  -54.8372 H         1 UNK         0.3032 
    123 H123       36.9307  -49.0078  -53.5883 H         1 UNK         0.1094 
    124 H124       37.9600  -49.2993  -55.8326 H         1 UNK         0.0794 
    125 H125       37.9931  -50.8178  -54.9539 H         1 UNK         0.0794 
    126 H126       36.8042  -50.5739  -56.2258 H         1 UNK         0.0794 
    127 H127       35.5670  -48.4297  -56.0202 H         1 UNK         0.3016 
@<TRIPOS>BOND
     1    1    2 1    
     2    1   67 1    
     3    1   68 1    
     4    1   69 1    
     5    2    3 2    
     6    2    4 am   BACKBONE|DICT|INTERRES
     7    4    5 1    
     8    4   70 1    
     9    5    6 1    
    10    5   65 1    
    11    5   71 1    
    12    6    7 1    
    13    6   72 1    
    14    6   73 1    
    15    7    8 1    
    16    8    9 1    
    17    8   74 1    
    18    8   75 1    
    19    9   10 ar   
    20    9   14 ar   
    21   10   11 ar   
    22   10   76 1    
    23   11   12 ar   
    24   11   48 1    
    25   12   13 ar   
    26   12   77 1    
    27   13   14 ar   
    28   13   15 1    
    29   14   78 1    
    30   15   16 1    
    31   15   79 1    
    32   15   80 1    
    33   16   17 1    
    34   17   18 1    
    35   17   81 1    
    36   17   82 1    
    37   18   19 1    
    38   18   22 1    
    39   18   83 1    
    40   19   20 am   BACKBONE|DICT|INTERRES
    41   19   21 2    
    42   20   84 1    
    43   20   85 1    
    44   22   23 am   BACKBONE|DICT|INTERRES
    45   22   86 1    
    46   23   24 2    
    47   23   25 1    
    48   25   26 1    
    49   25   27 1    
    50   25   87 1    
    51   26   88 1    
    52   26   89 1    
    53   26   90 1    
    54   27   28 am   BACKBONE|DICT|INTERRES
    55   27   91 1    
    56   28   29 2    
    57   28   30 1    
    58   30   31 1    
    59   30   32 1    
    60   30   92 1    
    61   31   93 1    
    62   31   94 1    
    63   31   95 1    
    64   32   33 am   BACKBONE|DICT|INTERRES
    65   32   96 1    
    66   33   34 2    
    67   33   35 1    
    68   35   36 1    
    69   35   37 1    
    70   35   97 1    
    71   36   98 1    
    72   36   99 1    
    73   36  100 1    
    74   37   38 am   BACKBONE|DICT|INTERRES
    75   37  101 1    
    76   38   39 2    
    77   38   40 1    
    78   40   41 1    
    79   40   42 1    
    80   40  102 1    
    81   41  103 1    
    82   41  104 1    
    83   41  105 1    
    84   42   43 am   BACKBONE|DICT|INTERRES
    85   42  106 1    
    86   43   44 2    
    87   43   45 1    
    88   45   46 1    
    89   45   49 1    
    90   45  107 1    
    91   46   47 1    
    92   46  108 1    
    93   46  109 1    
    94   47   48 1    
    95   48  110 1    
    96   48  111 1    
    97   49   50 am   BACKBONE|DICT|INTERRES
    98   49  112 1    
    99   50   51 2    
   100   50   52 1    
   101   52   53 1    
   102   52   54 1    
   103   52  113 1    
   104   53  114 1    
   105   53  115 1    
   106   53  116 1    
   107   54   55 am   BACKBONE|DICT|INTERRES
   108   54  117 1    
   109   55   56 2    
   110   55   57 1    
   111   57   58 1    
   112   57   59 1    
   113   57  118 1    
   114   58  119 1    
   115   58  120 1    
   116   58  121 1    
   117   59   60 am   BACKBONE|DICT|INTERRES
   118   59  122 1    
   119   60   61 2    
   120   60   62 1    
   121   62   63 1    
   122   62   64 1    
   123   62  123 1    
   124   63  124 1    
   125   63  125 1    
   126   63  126 1    
   127   64   65 am   BACKBONE|DICT|INTERRES
   128   64  127 1    
   129   65   66 2    
@<TRIPOS>SUBSTRUCTURE
     1 UNK         1 GROUP             0       ****    0 ROOT    
