@<TRIPOS>MOLECULE
3R134
127   129    1
SMALL
USER_CHARGES


@<TRIPOS>ATOM
      1 CA         28.7859  -44.9734  -48.3932 C.3       0 UNK        -0.1968 
      2 C          30.1121  -45.2086  -49.1012 C.2       0 UNK         0.4852 
      3 O          31.1363  -45.3763  -48.4375 O.2       0 UNK        -0.5359 
      4 N          30.0990  -45.2165  -50.4413 N.am      1 UNK        -0.4300 
      5 CA         31.2717  -45.4359  -51.2982 C.3       1 UNK         0.0863 
      6 C6         30.9669  -45.1203  -52.7807 C.3       11 UNK        -0.0953 
      7 S7         30.4905  -43.3829  -53.0503 S.3       11 UNK        -0.2369 
      8 C8         31.9965  -42.6969  -53.8118 C.3       11 UNK         0.0226 
      9 C9         32.1911  -43.1682  -55.2477 C.ar      11 UNK        -0.0699 
     10 C10        33.2834  -43.9709  -55.5913 C.ar      11 UNK        -0.0804 
     11 C11        33.4855  -44.3680  -56.9175 C.ar      11 UNK        -0.0871 
     12 C12        32.5630  -43.9866  -57.8972 C.ar      11 UNK        -0.1008 
     13 C13        31.4664  -43.1811  -57.5680 C.ar      11 UNK        -0.0735 
     14 C14        31.2965  -42.7652  -56.2432 C.ar      11 UNK        -0.0945 
     15 C15        30.5031  -42.7193  -58.6552 C.3       11 UNK         0.0169 
     16 S16        28.8763  -43.5380  -58.5593 S.3       11 UNK        -0.2669 
     17 C17        27.9591  -42.4539  -57.4083 C.3       11 UNK        -0.0850 
     18 CA         27.4111  -43.2181  -56.1735 C.3       10 UNK         0.0855 
     19 C          26.9092  -42.2225  -55.0844 C.2       10 UNK         0.5543 
     20 N          25.6445  -42.2499  -54.6813 N.am      10 UNK        -0.7343 
     21 O          27.6842  -41.4022  -54.6002 O.2       10 UNK        -0.5027 
     22 N          26.4250  -44.2331  -56.5853 N.am      10 UNK        -0.4495 
     23 C          26.0319  -45.2904  -55.8648 C.2       10 UNK         0.4903 
     24 O          26.4772  -45.5584  -54.7478 O.2       10 UNK        -0.4860 
     25 CA         24.9315  -46.1738  -56.4854 C.3       9 UNK         0.0227 
     26 CB         24.8828  -46.1050  -58.0270 C.3       9 UNK        -0.1964 
     27 N          25.1109  -47.5697  -56.0855 N.am      9 UNK        -0.4231 
     28 C          24.3855  -48.2132  -55.1597 C.2       9 UNK         0.5014 
     29 O          23.4689  -47.6866  -54.5258 O.2       9 UNK        -0.5270 
     30 CA         24.6885  -49.7048  -54.9075 C.3       8 UNK         0.0284 
     31 CB         23.5315  -50.5812  -55.4183 C.3       8 UNK        -0.1977 
     32 N          25.9325  -50.1649  -55.5287 N.am      8 UNK        -0.4342 
     33 C          27.1518  -50.0159  -54.9976 C.2       8 UNK         0.5039 
     34 O          27.3597  -49.5198  -53.8894 O.2       8 UNK        -0.5547 
     35 CA         28.3529  -50.4700  -55.8500 C.3       7 UNK         0.0281 
     36 CB         27.9856  -51.3446  -57.0710 C.3       7 UNK        -0.1963 
     37 N          29.1560  -49.3178  -56.2636 N.am      7 UNK        -0.4444 
     38 C          28.7382  -48.2451  -56.9537 C.2       7 UNK         0.5104 
     39 O          27.6077  -48.1284  -57.4274 O.2       7 UNK        -0.5100 
     40 CA         29.7547  -47.1137  -57.1418 C.3       6 UNK         0.0396 
     41 CB         29.9462  -46.3530  -55.8261 C.3       6 UNK        -0.1801 
     42 N          31.0448  -47.6498  -57.5565 N.am      6 UNK        -0.4747 
     43 C          31.5354  -47.6164  -58.8009 C.2       6 UNK         0.5012 
     44 O          30.9816  -47.0601  -59.7500 O.2       6 UNK        -0.5003 
     45 CA         32.8702  -48.3566  -59.0321 C.3       5 UNK         0.0782 
     46 C46        34.0803  -47.3955  -58.9125 C.3       11 UNK        -0.0868 
     47 S47        34.5056  -46.9464  -57.1896 S.3       11 UNK        -0.2515 
     48 C48        34.7394  -45.1459  -57.2942 C.3       11 UNK         0.0199 
     49 N          33.0192  -49.5323  -58.1658 N.am      5 UNK        -0.4607 
     50 C          32.2326  -50.6158  -58.1889 C.2       4 UNK         0.5031 
     51 O          31.3804  -50.8178  -59.0536 O.2       4 UNK        -0.5119 
     52 CA         32.4008  -51.6426  -57.0521 C.3       4 UNK         0.0263 
     53 CB         33.0987  -52.9087  -57.5753 C.3       4 UNK        -0.1967 
     54 N          33.1155  -51.1612  -55.8610 N.am      4 UNK        -0.4237 
     55 C          32.7239  -50.1634  -55.0560 C.2       3 UNK         0.4908 
     56 O          31.7589  -49.4309  -55.2865 O.2       3 UNK        -0.5102 
     57 CA         33.5911  -49.9203  -53.8101 C.3       3 UNK         0.0241 
     58 CB         34.7208  -48.9278  -54.1244 C.3       3 UNK        -0.1971 
     59 N          32.8182  -49.4029  -52.6811 N.am      3 UNK        -0.4139 
     60 C          31.8500  -50.0495  -52.0230 C.2       2 UNK         0.5016 
     61 O          31.5075  -51.2047  -52.2803 O.2       2 UNK        -0.5319 
     62 CA         31.1484  -49.3053  -50.8672 C.3       2 UNK         0.0286 
     63 CB         31.8641  -49.5808  -49.5304 C.3       2 UNK        -0.1963 
     64 N          30.9318  -47.8593  -51.0559 N.am      2 UNK        -0.4790 
     65 C          31.8310  -46.8678  -51.1724 C.2       1 UNK         0.5024 
     66 O          33.0499  -47.0414  -51.1964 O.2       1 UNK        -0.4888 
     67 H67        28.5439  -45.8249  -47.7578 H         1 UNK         0.0892 
     68 H68        28.8488  -44.0856  -47.7644 H         1 UNK         0.0892 
     69 H69        27.9661  -44.8320  -49.0973 H         1 UNK         0.0892 
     70 H70        29.2328  -45.0374  -50.9292 H         1 UNK         0.3107 
     71 H71        32.0580  -44.7566  -50.9609 H         1 UNK         0.0773 
     72 H72        31.8198  -45.3626  -53.4177 H         1 UNK         0.0680 
     73 H73        30.1394  -45.7410  -53.1248 H         1 UNK         0.0680 
     74 H74        32.8590  -42.9502  -53.1934 H         1 UNK         0.0650 
     75 H75        31.9244  -41.6085  -53.8052 H         1 UNK         0.0650 
     76 H76        33.9933  -44.2664  -54.8308 H         1 UNK         0.1397 
     77 H77        32.7147  -44.2946  -58.9226 H         1 UNK         0.1363 
     78 H78        30.4661  -42.1292  -55.9747 H         1 UNK         0.1355 
     79 H79        30.3852  -41.6357  -58.6123 H         1 UNK         0.0707 
     80 H80        30.9250  -42.9306  -59.6389 H         1 UNK         0.0707 
     81 H81        28.6013  -41.6271  -57.1033 H         1 UNK         0.1034 
     82 H82        27.1387  -41.9885  -57.9574 H         1 UNK         0.1034 
     83 H83        28.2499  -43.7438  -55.7143 H         1 UNK         0.0482 
     84 H84        24.9999  -42.9198  -55.0676 H         1 UNK         0.3460 
     85 H85        25.3366  -41.5984  -53.9768 H         1 UNK         0.3460 
     86 H86        26.0121  -44.0940  -57.4952 H         1 UNK         0.2989 
     87 H87        23.9782  -45.7973  -56.1099 H         1 UNK         0.0559 
     88 H88        24.5814  -45.1171  -58.3766 H         1 UNK         0.0848 
     89 H89        24.1560  -46.8116  -58.4283 H         1 UNK         0.0848 
     90 H90        25.8497  -46.3380  -58.4758 H         1 UNK         0.0848 
     91 H91        25.9086  -48.0391  -56.5066 H         1 UNK         0.3144 
     92 H92        24.7624  -49.8407  -53.8263 H         1 UNK         0.0727 
     93 H93        23.7015  -51.6344  -55.1936 H         1 UNK         0.0790 
     94 H94        23.3956  -50.4838  -56.4962 H         1 UNK         0.0790 
     95 H95        22.5894  -50.3003  -54.9452 H         1 UNK         0.0790 
     96 H96        25.8602  -50.5625  -56.4546 H         1 UNK         0.3215 
     97 H97        28.9867  -51.0675  -55.1925 H         1 UNK         0.0863 
     98 H98        27.3888  -50.8066  -57.8081 H         1 UNK         0.0808 
     99 H99        28.8844  -51.6948  -57.5791 H         1 UNK         0.0808 
    100 H100       27.4267  -52.2310  -56.7680 H         1 UNK         0.0808 
    101 H101       30.1022  -49.2989  -55.8836 H         1 UNK         0.3118 
    102 H102       29.3640  -46.4210  -57.8891 H         1 UNK         0.0546 
    103 H103       28.9974  -45.9822  -55.4421 H         1 UNK         0.0828 
    104 H104       30.6010  -45.4947  -55.9621 H         1 UNK         0.0828 
    105 H105       30.3858  -46.9896  -55.0581 H         1 UNK         0.0828 
    106 H106       31.5659  -48.1582  -56.8499 H         1 UNK         0.3005 
    107 H107       32.8380  -48.7210  -60.0616 H         1 UNK         0.1257 
    108 H108       34.9598  -47.8716  -59.3485 H         1 UNK         0.0775 
    109 H109       33.9134  -46.4964  -59.5085 H         1 UNK         0.0775 
    110 H110       35.5521  -44.8699  -56.6206 H         1 UNK         0.0840 
    111 H111       35.0805  -44.8638  -58.2913 H         1 UNK         0.0840 
    112 H112       33.6973  -49.4434  -57.4233 H         1 UNK         0.2987 
    113 H113       31.3940  -51.9182  -56.7312 H         1 UNK         0.0785 
    114 H114       33.1240  -53.6918  -56.8172 H         1 UNK         0.0798 
    115 H115       34.1245  -52.7048  -57.8848 H         1 UNK         0.0798 
    116 H116       32.5731  -53.3174  -58.4397 H         1 UNK         0.0798 
    117 H117       33.9411  -51.6836  -55.6036 H         1 UNK         0.3079 
    118 H118       34.0318  -50.8707  -53.5022 H         1 UNK         0.0794 
    119 H119       35.3183  -49.2598  -54.9745 H         1 UNK         0.0786 
    120 H120       35.3979  -48.8181  -53.2770 H         1 UNK         0.0786 
    121 H121       34.3276  -47.9392  -54.3648 H         1 UNK         0.0786 
    122 H122       33.0416  -48.4656  -52.3586 H         1 UNK         0.3032 
    123 H123       30.1499  -49.7411  -50.7965 H         1 UNK         0.1094 
    124 H124       32.8793  -49.1828  -49.5217 H         1 UNK         0.0794 
    125 H125       31.3240  -49.1384  -48.6932 H         1 UNK         0.0794 
    126 H126       31.9353  -50.6526  -49.3401 H         1 UNK         0.0794 
    127 H127       29.9592  -47.5854  -51.0854 H         1 UNK         0.3016 
@<TRIPOS>BOND
     1    1    2 1    
     2    1   67 1    
     3    1   68 1    
     4    1   69 1    
     5    2    3 2    
     6    2    4 am   BACKBONE|DICT|INTERRES
     7    4    5 1    
     8    4   70 1    
     9    5    6 1    
    10    5   65 1    
    11    5   71 1    
    12    6    7 1    
    13    6   72 1    
    14    6   73 1    
    15    7    8 1    
    16    8    9 1    
    17    8   74 1    
    18    8   75 1    
    19    9   10 ar   
    20    9   14 ar   
    21   10   11 ar   
    22   10   76 1    
    23   11   12 ar   
    24   11   48 1    
    25   12   13 ar   
    26   12   77 1    
    27   13   14 ar   
    28   13   15 1    
    29   14   78 1    
    30   15   16 1    
    31   15   79 1    
    32   15   80 1    
    33   16   17 1    
    34   17   18 1    
    35   17   81 1    
    36   17   82 1    
    37   18   19 1    
    38   18   22 1    
    39   18   83 1    
    40   19   20 am   BACKBONE|DICT|INTERRES
    41   19   21 2    
    42   20   84 1    
    43   20   85 1    
    44   22   23 am   BACKBONE|DICT|INTERRES
    45   22   86 1    
    46   23   24 2    
    47   23   25 1    
    48   25   26 1    
    49   25   27 1    
    50   25   87 1    
    51   26   88 1    
    52   26   89 1    
    53   26   90 1    
    54   27   28 am   BACKBONE|DICT|INTERRES
    55   27   91 1    
    56   28   29 2    
    57   28   30 1    
    58   30   31 1    
    59   30   32 1    
    60   30   92 1    
    61   31   93 1    
    62   31   94 1    
    63   31   95 1    
    64   32   33 am   BACKBONE|DICT|INTERRES
    65   32   96 1    
    66   33   34 2    
    67   33   35 1    
    68   35   36 1    
    69   35   37 1    
    70   35   97 1    
    71   36   98 1    
    72   36   99 1    
    73   36  100 1    
    74   37   38 am   BACKBONE|DICT|INTERRES
    75   37  101 1    
    76   38   39 2    
    77   38   40 1    
    78   40   41 1    
    79   40   42 1    
    80   40  102 1    
    81   41  103 1    
    82   41  104 1    
    83   41  105 1    
    84   42   43 am   BACKBONE|DICT|INTERRES
    85   42  106 1    
    86   43   44 2    
    87   43   45 1    
    88   45   46 1    
    89   45   49 1    
    90   45  107 1    
    91   46   47 1    
    92   46  108 1    
    93   46  109 1    
    94   47   48 1    
    95   48  110 1    
    96   48  111 1    
    97   49   50 am   BACKBONE|DICT|INTERRES
    98   49  112 1    
    99   50   51 2    
   100   50   52 1    
   101   52   53 1    
   102   52   54 1    
   103   52  113 1    
   104   53  114 1    
   105   53  115 1    
   106   53  116 1    
   107   54   55 am   BACKBONE|DICT|INTERRES
   108   54  117 1    
   109   55   56 2    
   110   55   57 1    
   111   57   58 1    
   112   57   59 1    
   113   57  118 1    
   114   58  119 1    
   115   58  120 1    
   116   58  121 1    
   117   59   60 am   BACKBONE|DICT|INTERRES
   118   59  122 1    
   119   60   61 2    
   120   60   62 1    
   121   62   63 1    
   122   62   64 1    
   123   62  123 1    
   124   63  124 1    
   125   63  125 1    
   126   63  126 1    
   127   64   65 am   BACKBONE|DICT|INTERRES
   128   64  127 1    
   129   65   66 2    
@<TRIPOS>SUBSTRUCTURE
     1 UNK         1 GROUP             0       ****    0 ROOT    
