@<TRIPOS>MOLECULE
3R134
127   129    1
SMALL
USER_CHARGES


@<TRIPOS>ATOM
      1 CA         38.9398  -43.4166  -52.5248 C.3       0 UNK        -0.1968 
      2 C          37.6848  -44.2374  -52.7842 C.2       0 UNK         0.4852 
      3 O          37.6996  -45.1203  -53.6438 O.2       0 UNK        -0.5359 
      4 N          36.6001  -43.9463  -52.0548 N.am      1 UNK        -0.4300 
      5 CA         35.3182  -44.6561  -52.1297 C.3       1 UNK         0.0863 
      6 C6         34.1724  -43.8476  -51.4643 C.3       11 UNK        -0.0953 
      7 S7         34.0023  -42.1527  -52.1351 S.3       11 UNK        -0.2369 
      8 C8         32.2063  -42.0170  -52.4514 C.3       11 UNK         0.0226 
      9 C9         31.7567  -42.4795  -53.8383 C.ar      11 UNK        -0.0699 
     10 C10        32.3802  -43.5424  -54.4999 C.ar      11 UNK        -0.0804 
     11 C11        31.9251  -43.9874  -55.7432 C.ar      11 UNK        -0.0871 
     12 C12        30.8374  -43.3482  -56.3416 C.ar      11 UNK        -0.1008 
     13 C13        30.2029  -42.2819  -55.6991 C.ar      11 UNK        -0.0735 
     14 C14        30.6644  -41.8533  -54.4500 C.ar      11 UNK        -0.0945 
     15 C15        29.0085  -41.6105  -56.3554 C.3       11 UNK         0.0169 
     16 S16        27.4670  -42.4546  -55.8903 S.3       11 UNK        -0.2669 
     17 C17        26.4866  -42.2425  -57.4143 C.3       11 UNK        -0.0850 
     18 CA         25.1225  -42.9793  -57.3583 C.3       10 UNK         0.0855 
     19 C          24.2903  -42.7008  -58.6460 C.2       10 UNK         0.5543 
     20 N          23.9552  -43.6950  -59.4610 N.am      10 UNK        -0.7343 
     21 O          23.9386  -41.5532  -58.9079 O.2       10 UNK        -0.5027 
     22 N          25.2867  -44.4055  -57.0351 N.am      10 UNK        -0.4495 
     23 C          24.3193  -45.2016  -56.5649 C.2       10 UNK         0.4903 
     24 O          23.1930  -44.8009  -56.2654 O.2       10 UNK        -0.4860 
     25 CA         24.6706  -46.6964  -56.4107 C.3       9 UNK         0.0227 
     26 CB         23.4167  -47.5957  -56.4365 C.3       9 UNK        -0.1964 
     27 N          25.6673  -47.1795  -57.3785 N.am      9 UNK        -0.4231 
     28 C          25.5847  -47.1477  -58.7195 C.2       9 UNK         0.5014 
     29 O          24.6566  -46.6309  -59.3432 O.2       9 UNK        -0.5270 
     30 CA         26.7428  -47.7927  -59.4954 C.3       8 UNK         0.0284 
     31 CB         27.9308  -46.8208  -59.6030 C.3       8 UNK        -0.1977 
     32 N          27.1756  -49.0384  -58.8583 N.am      8 UNK        -0.4342 
     33 C          26.6451  -50.2450  -59.1075 C.2       8 UNK         0.5039 
     34 O          25.8010  -50.4554  -59.9794 O.2       8 UNK        -0.5547 
     35 CA         27.1279  -51.4203  -58.2349 C.3       7 UNK         0.0281 
     36 CB         28.3294  -52.1192  -58.8905 C.3       7 UNK        -0.1963 
     37 N          27.4843  -51.0062  -56.8752 N.am      7 UNK        -0.4444 
     38 C          26.5939  -50.5977  -55.9565 C.2       7 UNK         0.5104 
     39 O          25.3762  -50.6750  -56.1136 O.2       7 UNK        -0.5100 
     40 CA         27.1354  -49.9659  -54.6572 C.3       6 UNK         0.0396 
     41 CB         26.9925  -50.9487  -53.4855 C.3       6 UNK        -0.1801 
     42 N          28.5281  -49.5125  -54.7476 N.am      6 UNK        -0.4747 
     43 C          28.9754  -48.5594  -55.5827 C.2       6 UNK         0.5012 
     44 O          28.2265  -47.9052  -56.3102 O.2       6 UNK        -0.5003 
     45 CA         30.5013  -48.3488  -55.6981 C.3       5 UNK         0.0782 
     46 C46        30.9233  -47.0029  -55.0682 C.3       11 UNK        -0.0868 
     47 S47        32.6911  -46.6366  -55.3557 S.3       11 UNK        -0.2515 
     48 C48        32.5993  -45.1678  -56.4317 C.3       11 UNK         0.0199 
     49 N          31.2779  -49.4745  -55.1656 N.am      5 UNK        -0.4607 
     50 C          31.2874  -50.7129  -55.6806 C.2       4 UNK         0.5031 
     51 O          30.6414  -51.0329  -56.6789 O.2       4 UNK        -0.5119 
     52 CA         32.1084  -51.7868  -54.9415 C.3       4 UNK         0.0263 
     53 CB         33.4740  -51.9732  -55.6213 C.3       4 UNK        -0.1967 
     54 N          32.3151  -51.5052  -53.5171 N.am      4 UNK        -0.4237 
     55 C          31.3434  -51.3639  -52.6027 C.2       3 UNK         0.4908 
     56 O          30.1476  -51.5158  -52.8507 O.2       3 UNK        -0.5102 
     57 CA         31.7669  -50.9352  -51.1849 C.3       3 UNK         0.0241 
     58 CB         31.8601  -52.1603  -50.2610 C.3       3 UNK        -0.1971 
     59 N          33.0292  -50.1847  -51.1271 N.am      3 UNK        -0.4139 
     60 C          33.2591  -49.0144  -51.7395 C.2       2 UNK         0.5016 
     61 O          32.4344  -48.4417  -52.4550 O.2       2 UNK        -0.5319 
     62 CA         34.6580  -48.4150  -51.5598 C.3       2 UNK         0.0286 
     63 CB         35.7033  -49.2061  -52.3692 C.3       2 UNK        -0.1963 
     64 N          34.6585  -47.0219  -52.0054 N.am      2 UNK        -0.4790 
     65 C          35.4376  -46.0600  -51.4980 C.2       1 UNK         0.5024 
     66 O          36.2153  -46.2435  -50.5570 O.2       1 UNK        -0.4888 
     67 H67        38.7823  -42.6629  -51.7534 H         1 UNK         0.0892 
     68 H68        39.7528  -44.0667  -52.2025 H         1 UNK         0.0892 
     69 H69        39.2507  -42.9077  -53.4369 H         1 UNK         0.0892 
     70 H70        36.6503  -43.2188  -51.3564 H         1 UNK         0.3107 
     71 H71        35.0876  -44.7929  -53.1872 H         1 UNK         0.0773 
     72 H72        34.3385  -43.7625  -50.3886 H         1 UNK         0.0680 
     73 H73        33.2248  -44.3769  -51.5816 H         1 UNK         0.0680 
     74 H74        31.9365  -40.9682  -52.3179 H         1 UNK         0.0650 
     75 H75        31.6543  -42.5704  -51.6909 H         1 UNK         0.0650 
     76 H76        33.2127  -44.0500  -54.0444 H         1 UNK         0.1397 
     77 H77        30.4723  -43.6874  -57.3016 H         1 UNK         0.1363 
     78 H78        30.1611  -41.0380  -53.9481 H         1 UNK         0.1355 
     79 H79        28.9483  -40.5608  -56.0638 H         1 UNK         0.0707 
     80 H80        29.1349  -41.6212  -57.4391 H         1 UNK         0.0707 
     81 H81        26.3370  -41.1727  -57.5746 H         1 UNK         0.1034 
     82 H82        27.0719  -42.6017  -58.2631 H         1 UNK         0.1034 
     83 H83        24.5533  -42.5323  -56.5407 H         1 UNK         0.0482 
     84 H84        23.4140  -43.4912  -60.2859 H         1 UNK         0.3460 
     85 H85        24.2261  -44.6524  -59.2633 H         1 UNK         0.3460 
     86 H86        26.1879  -44.8089  -57.2408 H         1 UNK         0.2989 
     87 H87        25.1318  -46.7992  -55.4274 H         1 UNK         0.0559 
     88 H88        22.7283  -47.3356  -55.6315 H         1 UNK         0.0848 
     89 H89        23.6762  -48.6456  -56.3080 H         1 UNK         0.0848 
     90 H90        22.8709  -47.4992  -57.3756 H         1 UNK         0.0848 
     91 H91        26.5251  -47.5453  -56.9705 H         1 UNK         0.3144 
     92 H92        26.3916  -48.0056  -60.5075 H         1 UNK         0.0727 
     93 H93        28.3324  -46.5498  -58.6262 H         1 UNK         0.0790 
     94 H94        27.6315  -45.8962  -60.0988 H         1 UNK         0.0790 
     95 H95        28.7419  -47.2530  -60.1892 H         1 UNK         0.0790 
     96 H96        27.8302  -48.9470  -58.0918 H         1 UNK         0.3215 
     97 H97        26.3097  -52.1409  -58.1674 H         1 UNK         0.0863 
     98 H98        28.6571  -52.9790  -58.3058 H         1 UNK         0.0808 
     99 H99        29.1799  -51.4449  -58.9994 H         1 UNK         0.0808 
    100 H100       28.0725  -52.4828  -59.8864 H         1 UNK         0.0808 
    101 H101       28.4737  -50.9499  -56.6594 H         1 UNK         0.3118 
    102 H102       26.5193  -49.0902  -54.4432 H         1 UNK         0.0546 
    103 H103       27.5684  -51.8599  -53.6522 H         1 UNK         0.0828 
    104 H104       25.9513  -51.2431  -53.3472 H         1 UNK         0.0828 
    105 H105       27.3306  -50.5052  -52.5488 H         1 UNK         0.0828 
    106 H106       29.2034  -50.0251  -54.1909 H         1 UNK         0.3005 
    107 H107       30.7129  -48.2930  -56.7684 H         1 UNK         0.1257 
    108 H108       30.7452  -47.0088  -53.9915 H         1 UNK         0.0775 
    109 H109       30.3139  -46.1901  -55.4672 H         1 UNK         0.0775 
    110 H110       33.6101  -44.8780  -56.7218 H         1 UNK         0.0840 
    111 H111       32.0780  -45.4364  -57.3519 H         1 UNK         0.0840 
    112 H112       31.8155  -49.2763  -54.3285 H         1 UNK         0.2987 
    113 H113       31.5542  -52.7248  -55.0153 H         1 UNK         0.0785 
    114 H114       33.3536  -52.2102  -56.6796 H         1 UNK         0.0798 
    115 H115       34.0348  -52.7922  -55.1705 H         1 UNK         0.0798 
    116 H116       34.0835  -51.0707  -55.5570 H         1 UNK         0.0798 
    117 H117       33.2683  -51.3626  -53.2184 H         1 UNK         0.3079 
    118 H118       30.9814  -50.2791  -50.8039 H         1 UNK         0.0794 
    119 H119       32.0542  -51.8666  -49.2292 H         1 UNK         0.0786 
    120 H120       32.6521  -52.8426  -50.5724 H         1 UNK         0.0786 
    121 H121       30.9254  -52.7232  -50.2639 H         1 UNK         0.0786 
    122 H122       33.7650  -50.5903  -50.5659 H         1 UNK         0.3032 
    123 H123       34.9042  -48.4620  -50.4962 H         1 UNK         0.1094 
    124 H124       35.4752  -49.1972  -53.4361 H         1 UNK         0.0794 
    125 H125       36.7021  -48.7884  -52.2402 H         1 UNK         0.0794 
    126 H126       35.7499  -50.2483  -52.0516 H         1 UNK         0.0794 
    127 H127       33.9728  -46.8118  -52.7219 H         1 UNK         0.3016 
@<TRIPOS>BOND
     1    1    2 1    
     2    1   67 1    
     3    1   68 1    
     4    1   69 1    
     5    2    3 2    
     6    2    4 am   BACKBONE|DICT|INTERRES
     7    4    5 1    
     8    4   70 1    
     9    5    6 1    
    10    5   65 1    
    11    5   71 1    
    12    6    7 1    
    13    6   72 1    
    14    6   73 1    
    15    7    8 1    
    16    8    9 1    
    17    8   74 1    
    18    8   75 1    
    19    9   10 ar   
    20    9   14 ar   
    21   10   11 ar   
    22   10   76 1    
    23   11   12 ar   
    24   11   48 1    
    25   12   13 ar   
    26   12   77 1    
    27   13   14 ar   
    28   13   15 1    
    29   14   78 1    
    30   15   16 1    
    31   15   79 1    
    32   15   80 1    
    33   16   17 1    
    34   17   18 1    
    35   17   81 1    
    36   17   82 1    
    37   18   19 1    
    38   18   22 1    
    39   18   83 1    
    40   19   20 am   BACKBONE|DICT|INTERRES
    41   19   21 2    
    42   20   84 1    
    43   20   85 1    
    44   22   23 am   BACKBONE|DICT|INTERRES
    45   22   86 1    
    46   23   24 2    
    47   23   25 1    
    48   25   26 1    
    49   25   27 1    
    50   25   87 1    
    51   26   88 1    
    52   26   89 1    
    53   26   90 1    
    54   27   28 am   BACKBONE|DICT|INTERRES
    55   27   91 1    
    56   28   29 2    
    57   28   30 1    
    58   30   31 1    
    59   30   32 1    
    60   30   92 1    
    61   31   93 1    
    62   31   94 1    
    63   31   95 1    
    64   32   33 am   BACKBONE|DICT|INTERRES
    65   32   96 1    
    66   33   34 2    
    67   33   35 1    
    68   35   36 1    
    69   35   37 1    
    70   35   97 1    
    71   36   98 1    
    72   36   99 1    
    73   36  100 1    
    74   37   38 am   BACKBONE|DICT|INTERRES
    75   37  101 1    
    76   38   39 2    
    77   38   40 1    
    78   40   41 1    
    79   40   42 1    
    80   40  102 1    
    81   41  103 1    
    82   41  104 1    
    83   41  105 1    
    84   42   43 am   BACKBONE|DICT|INTERRES
    85   42  106 1    
    86   43   44 2    
    87   43   45 1    
    88   45   46 1    
    89   45   49 1    
    90   45  107 1    
    91   46   47 1    
    92   46  108 1    
    93   46  109 1    
    94   47   48 1    
    95   48  110 1    
    96   48  111 1    
    97   49   50 am   BACKBONE|DICT|INTERRES
    98   49  112 1    
    99   50   51 2    
   100   50   52 1    
   101   52   53 1    
   102   52   54 1    
   103   52  113 1    
   104   53  114 1    
   105   53  115 1    
   106   53  116 1    
   107   54   55 am   BACKBONE|DICT|INTERRES
   108   54  117 1    
   109   55   56 2    
   110   55   57 1    
   111   57   58 1    
   112   57   59 1    
   113   57  118 1    
   114   58  119 1    
   115   58  120 1    
   116   58  121 1    
   117   59   60 am   BACKBONE|DICT|INTERRES
   118   59  122 1    
   119   60   61 2    
   120   60   62 1    
   121   62   63 1    
   122   62   64 1    
   123   62  123 1    
   124   63  124 1    
   125   63  125 1    
   126   63  126 1    
   127   64   65 am   BACKBONE|DICT|INTERRES
   128   64  127 1    
   129   65   66 2    
@<TRIPOS>SUBSTRUCTURE
     1 UNK         1 GROUP             0       ****    0 ROOT    
