@<TRIPOS>MOLECULE
3R134
127   129    1
SMALL
USER_CHARGES


@<TRIPOS>ATOM
      1 CA         34.2466  -47.1241  -51.2008 C.3       0 UNK        -0.1968 
      2 C          34.6245  -46.6149  -52.5837 C.2       0 UNK         0.4852 
      3 O          35.7629  -46.1941  -52.7933 O.2       0 UNK        -0.5359 
      4 N          33.6727  -46.6483  -53.5238 N.am      1 UNK        -0.4300 
      5 CA         33.8663  -46.2824  -54.9290 C.3       1 UNK         0.0863 
      6 C6         32.5264  -45.8607  -55.5801 C.3       11 UNK        -0.0953 
      7 S7         32.7283  -44.5565  -56.8420 S.3       11 UNK        -0.2369 
      8 C8         32.5372  -43.0155  -55.8786 C.3       11 UNK         0.0226 
      9 C9         31.3061  -43.0193  -54.9808 C.ar      11 UNK        -0.0699 
     10 C10        31.4563  -42.9455  -53.5922 C.ar      11 UNK        -0.0804 
     11 C11        30.3416  -43.0239  -52.7540 C.ar      11 UNK        -0.0871 
     12 C12        29.0673  -43.1472  -53.3150 C.ar      11 UNK        -0.1008 
     13 C13        28.9059  -43.2523  -54.6985 C.ar      11 UNK        -0.0735 
     14 C14        30.0276  -43.1674  -55.5289 C.ar      11 UNK        -0.0945 
     15 C15        27.5326  -43.5680  -55.2717 C.3       11 UNK         0.0169 
     16 S16        26.6502  -42.0902  -55.8609 S.3       11 UNK        -0.2669 
     17 C17        27.1075  -42.0582  -57.6285 C.3       11 UNK        -0.0850 
     18 CA         26.0641  -42.7624  -58.5390 C.3       10 UNK         0.0855 
     19 C          26.4007  -42.5177  -60.0404 C.2       10 UNK         0.5543 
     20 N          26.8008  -43.5220  -60.8126 N.am      10 UNK        -0.7343 
     21 O          26.2934  -41.3887  -60.5125 O.2       10 UNK        -0.5027 
     22 N          25.9010  -44.1803  -58.1804 N.am      10 UNK        -0.4495 
     23 C          24.8922  -44.9723  -58.5638 C.2       10 UNK         0.4903 
     24 O          23.8948  -44.5621  -59.1594 O.2       10 UNK        -0.4860 
     25 CA         25.0230  -46.4773  -58.2301 C.3       9 UNK         0.0227 
     26 CB         24.3194  -47.3672  -59.2757 C.3       9 UNK        -0.1964 
     27 N          26.4034  -46.9448  -58.0148 N.am      9 UNK        -0.4231 
     28 C          27.4396  -46.8385  -58.8648 C.2       9 UNK         0.5014 
     29 O          27.3596  -46.3017  -59.9709 O.2       9 UNK        -0.5270 
     30 CA         28.8106  -47.3611  -58.4008 C.3       8 UNK         0.0284 
     31 CB         29.7464  -46.1889  -58.0720 C.3       8 UNK        -0.1977 
     32 N          28.7424  -48.2567  -57.2438 N.am      8 UNK        -0.4342 
     33 C          28.4374  -49.5599  -57.3215 C.2       8 UNK         0.5039 
     34 O          28.2335  -50.1520  -58.3819 O.2       8 UNK        -0.5547 
     35 CA         28.3240  -50.3392  -55.9972 C.3       7 UNK         0.0281 
     36 CB         29.6606  -51.0266  -55.6688 C.3       7 UNK        -0.1963 
     37 N          27.9091  -49.5249  -54.8502 N.am      7 UNK        -0.4444 
     38 C          26.7776  -48.8110  -54.7569 C.2       7 UNK         0.5104 
     39 O          25.9305  -48.7481  -55.6474 O.2       7 UNK        -0.5100 
     40 CA         26.5694  -47.9919  -53.4698 C.3       6 UNK         0.0396 
     41 CB         25.6055  -48.7249  -52.5239 C.3       6 UNK        -0.1801 
     42 N          27.8021  -47.6656  -52.7422 N.am      6 UNK        -0.4747 
     43 C          28.8196  -46.9367  -53.2267 C.2       6 UNK         0.5012 
     44 O          28.8768  -46.5307  -54.3879 O.2       6 UNK        -0.5003 
     45 CA         29.9933  -46.6869  -52.2595 C.3       5 UNK         0.0782 
     46 C46        29.6026  -45.7109  -51.1170 C.3       11 UNK        -0.0868 
     47 S47        31.0175  -44.6713  -50.6206 S.3       11 UNK        -0.2515 
     48 C48        30.5180  -43.0275  -51.2418 C.3       11 UNK         0.0199 
     49 N          30.4903  -47.9638  -51.7315 N.am      5 UNK        -0.4607 
     50 C          31.1341  -48.8871  -52.4530 C.2       4 UNK         0.5031 
     51 O          31.5576  -48.6851  -53.5962 O.2       4 UNK        -0.5119 
     52 CA         31.3274  -50.2599  -51.7942 C.3       4 UNK         0.0263 
     53 CB         29.9777  -50.9173  -51.4408 C.3       4 UNK        -0.1967 
     54 N          32.0570  -51.1048  -52.7303 N.am      4 UNK        -0.4237 
     55 C          32.7903  -52.1857  -52.4427 C.2       3 UNK         0.4908 
     56 O          32.8986  -52.6613  -51.3120 O.2       3 UNK        -0.5102 
     57 CA         33.5345  -52.8505  -53.6196 C.3       3 UNK         0.0241 
     58 CB         32.7656  -54.0904  -54.1052 C.3       3 UNK        -0.1971 
     59 N          33.7527  -51.9463  -54.7563 N.am      3 UNK        -0.4139 
     60 C          34.5697  -50.8836  -54.7364 C.2       2 UNK         0.5016 
     61 O          35.3023  -50.6069  -53.7851 O.2       2 UNK        -0.5319 
     62 CA         34.5251  -49.9295  -55.9376 C.3       2 UNK         0.0286 
     63 CB         33.6538  -50.4079  -57.1187 C.3       2 UNK        -0.1963 
     64 N          34.0085  -48.6597  -55.4402 N.am      2 UNK        -0.4790 
     65 C          34.5184  -47.4491  -55.6948 C.2       1 UNK         0.5024 
     66 O          35.4586  -47.2402  -56.4626 O.2       1 UNK        -0.4888 
     67 H67        34.7788  -46.5645  -50.4319 H         1 UNK         0.0892 
     68 H68        33.1795  -47.0140  -51.0105 H         1 UNK         0.0892 
     69 H69        34.5108  -48.1769  -51.1028 H         1 UNK         0.0892 
     70 H70        32.7823  -47.0815  -53.3133 H         1 UNK         0.3107 
     71 H71        34.5548  -45.4347  -54.9594 H         1 UNK         0.0773 
     72 H72        32.0147  -46.7114  -56.0336 H         1 UNK         0.0680 
     73 H73        31.8274  -45.5128  -54.8230 H         1 UNK         0.0680 
     74 H74        32.4731  -42.1735  -56.5689 H         1 UNK         0.0650 
     75 H75        33.4434  -42.8626  -55.2905 H         1 UNK         0.0650 
     76 H76        32.4440  -42.8652  -53.1589 H         1 UNK         0.1397 
     77 H77        28.2007  -43.2181  -52.6724 H         1 UNK         0.1363 
     78 H78        29.9197  -43.2701  -56.5987 H         1 UNK         0.1355 
     79 H79        27.6329  -44.3038  -56.0689 H         1 UNK         0.0707 
     80 H80        26.9182  -44.0508  -54.5100 H         1 UNK         0.0707 
     81 H81        27.2047  -41.0078  -57.9108 H         1 UNK         0.1034 
     82 H82        28.0974  -42.4928  -57.7691 H         1 UNK         0.1034 
     83 H83        25.1007  -42.2782  -58.3676 H         1 UNK         0.0482 
     84 H84        27.0103  -43.3423  -61.7813 H         1 UNK         0.3460 
     85 H85        26.9042  -44.4624  -60.4430 H         1 UNK         0.3460 
     86 H86        26.6790  -44.6097  -57.7073 H         1 UNK         0.2989 
     87 H87        24.5089  -46.6180  -57.2782 H         1 UNK         0.0559 
     88 H88        23.2574  -47.1292  -59.3468 H         1 UNK         0.0848 
     89 H89        24.3947  -48.4223  -59.0122 H         1 UNK         0.0848 
     90 H90        24.7494  -47.2379  -60.2695 H         1 UNK         0.0848 
     91 H91        26.5499  -47.4463  -57.1451 H         1 UNK         0.3144 
     92 H92        29.2420  -47.9034  -59.2451 H         1 UNK         0.0727 
     93 H93        29.4778  -45.7003  -57.1350 H         1 UNK         0.0790 
     94 H94        29.7330  -45.4303  -58.8562 H         1 UNK         0.0790 
     95 H95        30.7749  -46.5363  -57.9894 H         1 UNK         0.0790 
     96 H96        28.8943  -47.8435  -56.3307 H         1 UNK         0.3215 
     97 H97        27.5644  -51.1107  -56.1401 H         1 UNK         0.0863 
     98 H98        29.5793  -51.6598  -54.7852 H         1 UNK         0.0808 
     99 H99        30.4526  -50.2981  -55.4939 H         1 UNK         0.0808 
    100 H100       29.9825  -51.6655  -56.4926 H         1 UNK         0.0808 
    101 H101       28.5474  -49.4808  -54.0712 H         1 UNK         0.3118 
    102 H102       26.1058  -47.0478  -53.7637 H         1 UNK         0.0546 
    103 H103       26.0260  -49.6663  -52.1677 H         1 UNK         0.0828 
    104 H104       24.6659  -48.9583  -53.0271 H         1 UNK         0.0828 
    105 H105       25.3596  -48.1150  -51.6545 H         1 UNK         0.0828 
    106 H106       27.8501  -47.9779  -51.7832 H         1 UNK         0.3005 
    107 H107       30.7767  -46.2241  -52.8617 H         1 UNK         0.1257 
    108 H108       29.2487  -46.2543  -50.2394 H         1 UNK         0.0775 
    109 H109       28.7705  -45.0637  -51.3939 H         1 UNK         0.0775 
    110 H110       29.5976  -42.7161  -50.7451 H         1 UNK         0.0840 
    111 H111       31.2769  -42.2961  -50.9597 H         1 UNK         0.0840 
    112 H112       30.2209  -48.1892  -50.7847 H         1 UNK         0.2987 
    113 H113       31.9257  -50.1238  -50.8908 H         1 UNK         0.0785 
    114 H114       29.4237  -50.3298  -50.7082 H         1 UNK         0.0798 
    115 H115       30.1220  -51.9064  -51.0055 H         1 UNK         0.0798 
    116 H116       29.3412  -51.0338  -52.3184 H         1 UNK         0.0798 
    117 H117       32.0665  -50.7442  -53.6746 H         1 UNK         0.3079 
    118 H118       34.5101  -53.1728  -53.2491 H         1 UNK         0.0794 
    119 H119       33.3126  -54.6159  -54.8884 H         1 UNK         0.0786 
    120 H120       31.7821  -53.8288  -54.4979 H         1 UNK         0.0786 
    121 H121       32.6124  -54.7986  -53.2896 H         1 UNK         0.0786 
    122 H122       33.1989  -52.1136  -55.5840 H         1 UNK         0.3032 
    123 H123       35.5548  -49.8134  -56.2843 H         1 UNK         0.1094 
    124 H124       32.6026  -50.5062  -56.8462 H         1 UNK         0.0794 
    125 H125       33.7071  -49.7006  -57.9467 H         1 UNK         0.0794 
    126 H126       33.9979  -51.3691  -57.5032 H         1 UNK         0.0794 
    127 H127       33.2475  -48.7218  -54.7722 H         1 UNK         0.3016 
@<TRIPOS>BOND
     1    1    2 1    
     2    1   67 1    
     3    1   68 1    
     4    1   69 1    
     5    2    3 2    
     6    2    4 am   BACKBONE|DICT|INTERRES
     7    4    5 1    
     8    4   70 1    
     9    5    6 1    
    10    5   65 1    
    11    5   71 1    
    12    6    7 1    
    13    6   72 1    
    14    6   73 1    
    15    7    8 1    
    16    8    9 1    
    17    8   74 1    
    18    8   75 1    
    19    9   10 ar   
    20    9   14 ar   
    21   10   11 ar   
    22   10   76 1    
    23   11   12 ar   
    24   11   48 1    
    25   12   13 ar   
    26   12   77 1    
    27   13   14 ar   
    28   13   15 1    
    29   14   78 1    
    30   15   16 1    
    31   15   79 1    
    32   15   80 1    
    33   16   17 1    
    34   17   18 1    
    35   17   81 1    
    36   17   82 1    
    37   18   19 1    
    38   18   22 1    
    39   18   83 1    
    40   19   20 am   BACKBONE|DICT|INTERRES
    41   19   21 2    
    42   20   84 1    
    43   20   85 1    
    44   22   23 am   BACKBONE|DICT|INTERRES
    45   22   86 1    
    46   23   24 2    
    47   23   25 1    
    48   25   26 1    
    49   25   27 1    
    50   25   87 1    
    51   26   88 1    
    52   26   89 1    
    53   26   90 1    
    54   27   28 am   BACKBONE|DICT|INTERRES
    55   27   91 1    
    56   28   29 2    
    57   28   30 1    
    58   30   31 1    
    59   30   32 1    
    60   30   92 1    
    61   31   93 1    
    62   31   94 1    
    63   31   95 1    
    64   32   33 am   BACKBONE|DICT|INTERRES
    65   32   96 1    
    66   33   34 2    
    67   33   35 1    
    68   35   36 1    
    69   35   37 1    
    70   35   97 1    
    71   36   98 1    
    72   36   99 1    
    73   36  100 1    
    74   37   38 am   BACKBONE|DICT|INTERRES
    75   37  101 1    
    76   38   39 2    
    77   38   40 1    
    78   40   41 1    
    79   40   42 1    
    80   40  102 1    
    81   41  103 1    
    82   41  104 1    
    83   41  105 1    
    84   42   43 am   BACKBONE|DICT|INTERRES
    85   42  106 1    
    86   43   44 2    
    87   43   45 1    
    88   45   46 1    
    89   45   49 1    
    90   45  107 1    
    91   46   47 1    
    92   46  108 1    
    93   46  109 1    
    94   47   48 1    
    95   48  110 1    
    96   48  111 1    
    97   49   50 am   BACKBONE|DICT|INTERRES
    98   49  112 1    
    99   50   51 2    
   100   50   52 1    
   101   52   53 1    
   102   52   54 1    
   103   52  113 1    
   104   53  114 1    
   105   53  115 1    
   106   53  116 1    
   107   54   55 am   BACKBONE|DICT|INTERRES
   108   54  117 1    
   109   55   56 2    
   110   55   57 1    
   111   57   58 1    
   112   57   59 1    
   113   57  118 1    
   114   58  119 1    
   115   58  120 1    
   116   58  121 1    
   117   59   60 am   BACKBONE|DICT|INTERRES
   118   59  122 1    
   119   60   61 2    
   120   60   62 1    
   121   62   63 1    
   122   62   64 1    
   123   62  123 1    
   124   63  124 1    
   125   63  125 1    
   126   63  126 1    
   127   64   65 am   BACKBONE|DICT|INTERRES
   128   64  127 1    
   129   65   66 2    
@<TRIPOS>SUBSTRUCTURE
     1 UNK         1 GROUP             0       ****    0 ROOT    
