@<TRIPOS>MOLECULE
3R134
127   129    1
SMALL
USER_CHARGES


@<TRIPOS>ATOM
      1 CA         30.7112  -44.1944  -47.2872 C.3       0 UNK        -0.1968 
      2 C          31.7834  -44.8931  -48.1108 C.2       0 UNK         0.4852 
      3 O          32.6108  -45.6140  -47.5504 O.2       0 UNK        -0.5359 
      4 N          31.7800  -44.6789  -49.4332 N.am      1 UNK        -0.4300 
      5 CA         32.6886  -45.3200  -50.3870 C.3       1 UNK         0.0863 
      6 C6         32.7014  -44.5570  -51.7333 C.3       11 UNK        -0.0953 
      7 S7         34.1187  -45.0063  -52.7894 S.3       11 UNK        -0.2369 
      8 C8         34.2182  -43.5591  -53.8895 C.3       11 UNK         0.0226 
      9 C9         33.2337  -43.6575  -55.0461 C.ar      11 UNK        -0.0699 
     10 C10        33.6385  -44.2176  -56.2595 C.ar      11 UNK        -0.0804 
     11 C11        32.7512  -44.2990  -57.3351 C.ar      11 UNK        -0.0871 
     12 C12        31.4423  -43.8328  -57.1864 C.ar      11 UNK        -0.1008 
     13 C13        31.0171  -43.2665  -55.9749 C.ar      11 UNK        -0.0735 
     14 C14        31.9275  -43.1765  -54.9152 C.ar      11 UNK        -0.0945 
     15 C15        29.5938  -42.7519  -55.7418 C.3       11 UNK         0.0169 
     16 S16        28.4468  -42.8989  -57.1579 S.3       11 UNK        -0.2669 
     17 C17        26.8374  -42.8704  -56.2969 C.3       11 UNK        -0.0850 
     18 CA         26.4113  -44.2942  -55.8423 C.3       10 UNK         0.0855 
     19 C          25.1782  -44.3133  -54.8979 C.2       10 UNK         0.5543 
     20 N          24.9182  -45.4470  -54.2619 N.am      10 UNK        -0.7343 
     21 O          24.4701  -43.3222  -54.7336 O.2       10 UNK        -0.5027 
     22 N          26.2941  -45.2479  -56.9605 N.am      10 UNK        -0.4495 
     23 C          25.3435  -45.2358  -57.9046 C.2       10 UNK         0.4903 
     24 O          24.4160  -44.4267  -57.9419 O.2       10 UNK        -0.4860 
     25 CA         25.4424  -46.2858  -59.0184 C.3       9 UNK         0.0227 
     26 CB         26.3118  -45.7489  -60.1685 C.3       9 UNK        -0.1964 
     27 N          25.9976  -47.5609  -58.5539 N.am      9 UNK        -0.4231 
     28 C          25.2965  -48.6984  -58.4540 C.2       9 UNK         0.5014 
     29 O          24.0775  -48.7724  -58.6185 O.2       9 UNK        -0.5270 
     30 CA         26.0881  -49.9880  -58.1832 C.3       8 UNK         0.0284 
     31 CB         26.9180  -50.3821  -59.4170 C.3       8 UNK        -0.1977 
     32 N          26.9556  -49.9144  -57.0074 N.am      8 UNK        -0.4342 
     33 C          26.5206  -49.9698  -55.7410 C.2       8 UNK         0.5039 
     34 O          25.3321  -50.0403  -55.4254 O.2       8 UNK        -0.5547 
     35 CA         27.5923  -49.9591  -54.6356 C.3       7 UNK         0.0281 
     36 CB         28.2502  -51.3409  -54.4877 C.3       7 UNK        -0.1963 
     37 N          28.6220  -48.9459  -54.8630 N.am      7 UNK        -0.4444 
     38 C          28.4002  -47.6270  -54.8048 C.2       7 UNK         0.5104 
     39 O          27.3231  -47.1287  -54.4789 O.2       7 UNK        -0.5100 
     40 CA         29.5647  -46.7125  -55.2185 C.3       6 UNK         0.0396 
     41 CB         30.5170  -46.4751  -54.0405 C.3       6 UNK        -0.1801 
     42 N          30.2994  -47.2390  -56.3699 N.am      6 UNK        -0.4747 
     43 C          29.7894  -47.3142  -57.6073 C.2       6 UNK         0.5012 
     44 O          28.6615  -46.9155  -57.8999 O.2       6 UNK        -0.5003 
     45 CA         30.6407  -48.0090  -58.6882 C.3       5 UNK         0.0782 
     46 C46        31.5360  -47.0116  -59.4687 C.3       11 UNK        -0.0868 
     47 S47        33.1590  -46.6776  -58.6923 S.3       11 UNK        -0.2515 
     48 C48        33.2274  -44.8613  -58.6648 C.3       11 UNK         0.0199 
     49 N          31.3960  -49.1489  -58.1611 N.am      5 UNK        -0.4607 
     50 C          30.8562  -50.2738  -57.6779 C.2       4 UNK         0.5031 
     51 O          29.6500  -50.5111  -57.6900 O.2       4 UNK        -0.5119 
     52 CA         31.8218  -51.2688  -57.0122 C.3       4 UNK         0.0263 
     53 CB         32.4742  -52.1778  -58.0654 C.3       4 UNK        -0.1967 
     54 N          32.8609  -50.6072  -56.2126 N.am      4 UNK        -0.4237 
     55 C          32.6109  -49.8358  -55.1453 C.2       3 UNK         0.4908 
     56 O          31.4751  -49.6129  -54.7213 O.2       3 UNK        -0.5102 
     57 CA         33.8254  -49.1492  -54.4948 C.3       3 UNK         0.0241 
     58 CB         34.1874  -47.8672  -55.2635 C.3       3 UNK        -0.1971 
     59 N          33.5977  -48.8042  -53.0890 N.am      3 UNK        -0.4139 
     60 C          33.4233  -49.6892  -52.0972 C.2       2 UNK         0.5016 
     61 O          33.4694  -50.9100  -52.2612 O.2       2 UNK        -0.5319 
     62 CA         33.1934  -49.1363  -50.6772 C.3       2 UNK         0.0286 
     63 CB         34.1713  -49.7751  -49.6738 C.3       2 UNK        -0.1963 
     64 N          33.3345  -47.6778  -50.5928 N.am      2 UNK        -0.4790 
     65 C          32.3164  -46.8088  -50.5621 C.2       1 UNK         0.5024 
     66 O          31.1321  -47.1341  -50.6711 O.2       1 UNK        -0.4888 
     67 H67        30.0572  -43.5795  -47.9053 H         1 UNK         0.0892 
     68 H68        30.0957  -44.9309  -46.7714 H         1 UNK         0.0892 
     69 H69        31.1728  -43.5510  -46.5386 H         1 UNK         0.0892 
     70 H70        31.0551  -44.1040  -49.8378 H         1 UNK         0.3107 
     71 H71        33.6919  -45.2625  -49.9578 H         1 UNK         0.0773 
     72 H72        31.7712  -44.7001  -52.2811 H         1 UNK         0.0680 
     73 H73        32.7681  -43.4860  -51.5357 H         1 UNK         0.0680 
     74 H74        35.2357  -43.4914  -54.2773 H         1 UNK         0.0650 
     75 H75        34.0527  -42.6412  -53.3238 H         1 UNK         0.0650 
     76 H76        34.6495  -44.5857  -56.3700 H         1 UNK         0.1397 
     77 H77        30.7667  -43.9151  -58.0249 H         1 UNK         0.1363 
     78 H78        31.6141  -42.7403  -53.9766 H         1 UNK         0.1355 
     79 H79        29.6385  -41.7029  -55.4455 H         1 UNK         0.0707 
     80 H80        29.1786  -43.2954  -54.8923 H         1 UNK         0.0707 
     81 H81        26.9033  -42.1927  -55.4436 H         1 UNK         0.1034 
     82 H82        26.0882  -42.4413  -56.9640 H         1 UNK         0.1034 
     83 H83        27.2253  -44.6586  -55.2203 H         1 UNK         0.0482 
     84 H84        25.5587  -46.2291  -54.3598 H         1 UNK         0.3460 
     85 H85        24.1286  -45.5067  -53.6393 H         1 UNK         0.3460 
     86 H86        27.0392  -45.9292  -57.0356 H         1 UNK         0.2989 
     87 H87        24.4349  -46.4335  -59.4129 H         1 UNK         0.0559 
     88 H88        27.3340  -45.5471  -59.8455 H         1 UNK         0.0848 
     89 H89        25.9060  -44.8154  -60.5607 H         1 UNK         0.0848 
     90 H90        26.3551  -46.4562  -60.9967 H         1 UNK         0.0848 
     91 H91        26.9958  -47.5675  -58.3574 H         1 UNK         0.3144 
     92 H92        25.3623  -50.7860  -58.0113 H         1 UNK         0.0727 
     93 H93        27.6985  -49.6519  -59.6329 H         1 UNK         0.0790 
     94 H94        26.2880  -50.4594  -60.3042 H         1 UNK         0.0790 
     95 H95        27.3988  -51.3505  -59.2766 H         1 UNK         0.0790 
     96 H96        27.9594  -49.9397  -57.1782 H         1 UNK         0.3215 
     97 H97        27.0934  -49.7215  -53.6935 H         1 UNK         0.0863 
     98 H98        28.9699  -51.3508  -53.6688 H         1 UNK         0.0808 
     99 H99        28.7744  -51.6418  -55.3948 H         1 UNK         0.0808 
    100 H100       27.5032  -52.1063  -54.2738 H         1 UNK         0.0808 
    101 H101       29.5645  -49.2673  -55.0670 H         1 UNK         0.3118 
    102 H102       29.1575  -45.7461  -55.5141 H         1 UNK         0.0546 
    103 H103       31.3806  -45.8849  -54.3423 H         1 UNK         0.0828 
    104 H104       30.8828  -47.4045  -53.6063 H         1 UNK         0.0828 
    105 H105       30.0060  -45.9329  -53.2445 H         1 UNK         0.0828 
    106 H106       31.2119  -47.6322  -56.1937 H         1 UNK         0.3005 
    107 H107       29.9223  -48.4155  -59.4039 H         1 UNK         0.1257 
    108 H108       31.0034  -46.0779  -59.6602 H         1 UNK         0.0775 
    109 H109       31.7447  -47.4268  -60.4558 H         1 UNK         0.0775 
    110 H110       34.2604  -44.5539  -58.8351 H         1 UNK         0.0840 
    111 H111       32.6559  -44.4422  -59.4941 H         1 UNK         0.0840 
    112 H112       32.3968  -49.0232  -58.1120 H         1 UNK         0.2987 
    113 H113       31.2331  -51.8946  -56.3379 H         1 UNK         0.0785 
    114 H114       31.7163  -52.6907  -58.6596 H         1 UNK         0.0798 
    115 H115       33.0912  -52.9461  -57.5991 H         1 UNK         0.0798 
    116 H116       33.1029  -51.6141  -58.7559 H         1 UNK         0.0798 
    117 H117       33.8176  -50.7406  -56.5084 H         1 UNK         0.3079 
    118 H118       34.6731  -49.8364  -54.5356 H         1 UNK         0.0794 
    119 H119       33.3668  -47.1487  -55.2674 H         1 UNK         0.0786 
    120 H120       34.4341  -48.0873  -56.3025 H         1 UNK         0.0786 
    121 H121       35.0572  -47.3746  -54.8283 H         1 UNK         0.0786 
    122 H122       33.5297  -47.8226  -52.8647 H         1 UNK         0.3032 
    123 H123       32.1805  -49.4291  -50.3908 H         1 UNK         0.1094 
    124 H124       35.2098  -49.5613  -49.9295 H         1 UNK         0.0794 
    125 H125       33.9928  -49.4122  -48.6613 H         1 UNK         0.0794 
    126 H126       34.0583  -50.8599  -49.6486 H         1 UNK         0.0794 
    127 H127       34.2785  -47.3230  -50.5197 H         1 UNK         0.3016 
@<TRIPOS>BOND
     1    1    2 1    
     2    1   67 1    
     3    1   68 1    
     4    1   69 1    
     5    2    3 2    
     6    2    4 am   BACKBONE|DICT|INTERRES
     7    4    5 1    
     8    4   70 1    
     9    5    6 1    
    10    5   65 1    
    11    5   71 1    
    12    6    7 1    
    13    6   72 1    
    14    6   73 1    
    15    7    8 1    
    16    8    9 1    
    17    8   74 1    
    18    8   75 1    
    19    9   10 ar   
    20    9   14 ar   
    21   10   11 ar   
    22   10   76 1    
    23   11   12 ar   
    24   11   48 1    
    25   12   13 ar   
    26   12   77 1    
    27   13   14 ar   
    28   13   15 1    
    29   14   78 1    
    30   15   16 1    
    31   15   79 1    
    32   15   80 1    
    33   16   17 1    
    34   17   18 1    
    35   17   81 1    
    36   17   82 1    
    37   18   19 1    
    38   18   22 1    
    39   18   83 1    
    40   19   20 am   BACKBONE|DICT|INTERRES
    41   19   21 2    
    42   20   84 1    
    43   20   85 1    
    44   22   23 am   BACKBONE|DICT|INTERRES
    45   22   86 1    
    46   23   24 2    
    47   23   25 1    
    48   25   26 1    
    49   25   27 1    
    50   25   87 1    
    51   26   88 1    
    52   26   89 1    
    53   26   90 1    
    54   27   28 am   BACKBONE|DICT|INTERRES
    55   27   91 1    
    56   28   29 2    
    57   28   30 1    
    58   30   31 1    
    59   30   32 1    
    60   30   92 1    
    61   31   93 1    
    62   31   94 1    
    63   31   95 1    
    64   32   33 am   BACKBONE|DICT|INTERRES
    65   32   96 1    
    66   33   34 2    
    67   33   35 1    
    68   35   36 1    
    69   35   37 1    
    70   35   97 1    
    71   36   98 1    
    72   36   99 1    
    73   36  100 1    
    74   37   38 am   BACKBONE|DICT|INTERRES
    75   37  101 1    
    76   38   39 2    
    77   38   40 1    
    78   40   41 1    
    79   40   42 1    
    80   40  102 1    
    81   41  103 1    
    82   41  104 1    
    83   41  105 1    
    84   42   43 am   BACKBONE|DICT|INTERRES
    85   42  106 1    
    86   43   44 2    
    87   43   45 1    
    88   45   46 1    
    89   45   49 1    
    90   45  107 1    
    91   46   47 1    
    92   46  108 1    
    93   46  109 1    
    94   47   48 1    
    95   48  110 1    
    96   48  111 1    
    97   49   50 am   BACKBONE|DICT|INTERRES
    98   49  112 1    
    99   50   51 2    
   100   50   52 1    
   101   52   53 1    
   102   52   54 1    
   103   52  113 1    
   104   53  114 1    
   105   53  115 1    
   106   53  116 1    
   107   54   55 am   BACKBONE|DICT|INTERRES
   108   54  117 1    
   109   55   56 2    
   110   55   57 1    
   111   57   58 1    
   112   57   59 1    
   113   57  118 1    
   114   58  119 1    
   115   58  120 1    
   116   58  121 1    
   117   59   60 am   BACKBONE|DICT|INTERRES
   118   59  122 1    
   119   60   61 2    
   120   60   62 1    
   121   62   63 1    
   122   62   64 1    
   123   62  123 1    
   124   63  124 1    
   125   63  125 1    
   126   63  126 1    
   127   64   65 am   BACKBONE|DICT|INTERRES
   128   64  127 1    
   129   65   66 2    
@<TRIPOS>SUBSTRUCTURE
     1 UNK         1 GROUP             0       ****    0 ROOT    
