@<TRIPOS>MOLECULE
3R134
127   129    1
SMALL
USER_CHARGES


@<TRIPOS>ATOM
      1 CA         33.1226  -46.8882  -50.4887 C.3       0 UNK        -0.1968 
      2 C          34.1077  -46.1296  -51.3641 C.2       0 UNK         0.4852 
      3 O          34.7333  -45.1741  -50.9013 O.2       0 UNK        -0.5359 
      4 N          34.2483  -46.5589  -52.6201 N.am      1 UNK        -0.4300 
      5 CA         35.1770  -46.0177  -53.6098 C.3       1 UNK         0.0863 
      6 C6         34.4881  -45.0215  -54.5850 C.3       11 UNK        -0.0953 
      7 S7         33.0379  -45.6898  -55.4790 S.3       11 UNK        -0.2369 
      8 C8         32.1188  -44.1673  -55.8708 C.3       11 UNK         0.0226 
      9 C9         30.8606  -44.0058  -55.0262 C.ar      11 UNK        -0.0699 
     10 C10        30.9441  -43.8715  -53.6355 C.ar      11 UNK        -0.0804 
     11 C11        29.7863  -43.6951  -52.8707 C.ar      11 UNK        -0.0871 
     12 C12        28.5466  -43.6104  -53.5085 C.ar      11 UNK        -0.1008 
     13 C13        28.4452  -43.7715  -54.8903 C.ar      11 UNK        -0.0735 
     14 C14        29.6051  -43.9757  -55.6440 C.ar      11 UNK        -0.0945 
     15 C15        27.0706  -43.7988  -55.5410 C.3       11 UNK         0.0169 
     16 S16        26.5106  -42.1651  -56.1240 S.3       11 UNK        -0.2669 
     17 C17        27.4086  -41.9331  -57.6996 C.3       11 UNK        -0.0850 
     18 CA         26.5786  -42.3621  -58.9495 C.3       10 UNK         0.0855 
     19 C          27.1805  -41.8300  -60.2879 C.2       10 UNK         0.5543 
     20 N          27.0455  -42.5418  -61.4003 N.am      10 UNK        -0.7343 
     21 O          27.7460  -40.7400  -60.3312 O.2       10 UNK        -0.5027 
     22 N          26.2444  -43.8010  -58.9482 N.am      10 UNK        -0.4495 
     23 C          27.1255  -44.8087  -59.0110 C.2       10 UNK         0.4903 
     24 O          28.3384  -44.6455  -59.1497 O.2       10 UNK        -0.4860 
     25 CA         26.5309  -46.2217  -58.8501 C.3       9 UNK         0.0227 
     26 CB         26.0681  -46.7969  -60.2037 C.3       9 UNK        -0.1964 
     27 N          27.4283  -47.1417  -58.1341 N.am      9 UNK        -0.4231 
     28 C          28.5882  -47.6754  -58.5501 C.2       9 UNK         0.5014 
     29 O          29.0486  -47.5674  -59.6879 O.2       9 UNK        -0.5270 
     30 CA         29.3836  -48.4766  -57.5048 C.3       8 UNK         0.0284 
     31 CB         30.2554  -47.5290  -56.6657 C.3       8 UNK        -0.1977 
     32 N          28.5684  -49.2935  -56.6021 N.am      8 UNK        -0.4342 
     33 C          27.7604  -50.2979  -56.9694 C.2       8 UNK         0.5039 
     34 O          27.5406  -50.6129  -58.1394 O.2       8 UNK        -0.5547 
     35 CA         27.1043  -51.1115  -55.8440 C.3       7 UNK         0.0281 
     36 CB         28.0465  -52.2420  -55.3955 C.3       7 UNK        -0.1963 
     37 N          26.7655  -50.2860  -54.6820 N.am      7 UNK        -0.4444 
     38 C          25.5383  -49.8286  -54.3996 C.2       7 UNK         0.5104 
     39 O          24.5579  -50.0152  -55.1212 O.2       7 UNK        -0.5100 
     40 CA         25.3488  -49.0593  -53.0764 C.3       6 UNK         0.0396 
     41 CB         24.7115  -49.9747  -52.0184 C.3       6 UNK        -0.1801 
     42 N          26.5885  -48.4986  -52.5318 N.am      6 UNK        -0.4747 
     43 C          27.1976  -47.4039  -53.0088 C.2       6 UNK         0.5012 
     44 O          26.7572  -46.7368  -53.9444 O.2       6 UNK        -0.5003 
     45 CA         28.5458  -47.0152  -52.3621 C.3       5 UNK         0.0782 
     46 C46        28.3282  -46.0363  -51.1800 C.3       11 UNK        -0.0868 
     47 S47        29.8983  -45.2968  -50.6083 S.3       11 UNK        -0.2515 
     48 C48        29.8599  -43.6312  -51.3527 C.3       11 UNK         0.0199 
     49 N          29.3681  -48.1677  -51.9603 N.am      5 UNK        -0.4607 
     50 C          29.7583  -49.1606  -52.7676 C.2       4 UNK         0.5031 
     51 O          29.3602  -49.2976  -53.9255 O.2       4 UNK        -0.5119 
     52 CA         30.7168  -50.2065  -52.1756 C.3       4 UNK         0.0263 
     53 CB         29.9189  -51.3786  -51.5822 C.3       4 UNK        -0.1967 
     54 N          31.6371  -50.7175  -53.1959 N.am      4 UNK        -0.4237 
     55 C          32.5442  -49.9634  -53.8296 C.2       3 UNK         0.4908 
     56 O          32.7909  -48.7923  -53.5213 O.2       3 UNK        -0.5102 
     57 CA         33.2900  -50.6159  -55.0040 C.3       3 UNK         0.0241 
     58 CB         32.3280  -51.1032  -56.1049 C.3       3 UNK        -0.1971 
     59 N          34.1938  -49.6144  -55.5551 N.am      3 UNK        -0.4139 
     60 C          35.4252  -49.8127  -56.0342 C.2       2 UNK         0.5016 
     61 O          35.9220  -50.9239  -56.2223 O.2       2 UNK        -0.5319 
     62 CA         36.2523  -48.5456  -56.3351 C.3       2 UNK         0.0286 
     63 CB         36.2218  -48.2276  -57.8387 C.3       2 UNK        -0.1963 
     64 N          35.7887  -47.3687  -55.5872 N.am      2 UNK        -0.4790 
     65 C          35.9043  -47.2109  -54.2606 C.2       1 UNK         0.5024 
     66 O          36.5398  -47.9877  -53.5448 O.2       1 UNK        -0.4888 
     67 H67        32.3302  -47.3394  -51.0858 H         1 UNK         0.0892 
     68 H68        33.6358  -47.6782  -49.9416 H         1 UNK         0.0892 
     69 H69        32.6602  -46.2169  -49.7659 H         1 UNK         0.0892 
     70 H70        33.7106  -47.3671  -52.9361 H         1 UNK         0.3107 
     71 H71        35.9657  -45.4654  -53.0946 H         1 UNK         0.0773 
     72 H72        35.2047  -44.6366  -55.3126 H         1 UNK         0.0680 
     73 H73        34.1649  -44.1517  -54.0117 H         1 UNK         0.0680 
     74 H74        31.8626  -44.1963  -56.9309 H         1 UNK         0.0650 
     75 H75        32.7563  -43.2919  -55.7414 H         1 UNK         0.0650 
     76 H76        31.9070  -43.9264  -53.1468 H         1 UNK         0.1397 
     77 H77        27.6482  -43.4647  -52.9247 H         1 UNK         0.1363 
     78 H78        29.5310  -44.1196  -56.7129 H         1 UNK         0.1355 
     79 H79        26.3377  -44.1600  -54.8179 H         1 UNK         0.0707 
     80 H80        27.0563  -44.5300  -56.3432 H         1 UNK         0.0707 
     81 H81        27.6485  -40.8699  -57.7540 H         1 UNK         0.1034 
     82 H82        28.3708  -42.4412  -57.6735 H         1 UNK         0.1034 
     83 H83        25.6178  -41.8511  -58.8784 H         1 UNK         0.0482 
     84 H84        26.5794  -43.4343  -61.3793 H         1 UNK         0.3460 
     85 H85        27.4255  -42.1880  -62.2641 H         1 UNK         0.3460 
     86 H86        25.2621  -44.0157  -58.8520 H         1 UNK         0.2989 
     87 H87        25.6499  -46.1355  -58.2119 H         1 UNK         0.0559 
     88 H88        26.8779  -46.8297  -60.9331 H         1 UNK         0.0848 
     89 H89        25.2740  -46.1867  -60.6352 H         1 UNK         0.0848 
     90 H90        25.6757  -47.8078  -60.0926 H         1 UNK         0.0848 
     91 H91        27.1810  -47.3154  -57.1697 H         1 UNK         0.3144 
     92 H92        30.0435  -49.1553  -58.0487 H         1 UNK         0.0727 
     93 H93        29.6500  -46.8698  -56.0426 H         1 UNK         0.0790 
     94 H94        30.8731  -46.8971  -57.3053 H         1 UNK         0.0790 
     95 H95        30.9279  -48.0763  -56.0054 H         1 UNK         0.0790 
     96 H96        28.7503  -49.1718  -55.6068 H         1 UNK         0.3215 
     97 H97        26.2010  -51.5709  -56.2517 H         1 UNK         0.0863 
     98 H98        27.5822  -52.8647  -54.6307 H         1 UNK         0.0808 
     99 H99        28.9820  -51.8544  -54.9901 H         1 UNK         0.0808 
    100 H100       28.3001  -52.8932  -56.2332 H         1 UNK         0.0808 
    101 H101       27.5357  -50.0193  -54.0785 H         1 UNK         0.3118 
    102 H102       24.6558  -48.2383  -53.2727 H         1 UNK         0.0546 
    103 H103       25.3577  -50.8176  -51.7700 H         1 UNK         0.0828 
    104 H104       23.7656  -50.3848  -52.3755 H         1 UNK         0.0828 
    105 H105       24.4981  -49.4307  -51.0982 H         1 UNK         0.0828 
    106 H106       27.0205  -48.9942  -51.7651 H         1 UNK         0.3005 
    107 H107       29.1068  -46.4929  -53.1411 H         1 UNK         0.1257 
    108 H108       27.8715  -46.5578  -50.3368 H         1 UNK         0.0775 
    109 H109       27.6306  -45.2400  -51.4410 H         1 UNK         0.0775 
    110 H110       29.0138  -43.0729  -50.9489 H         1 UNK         0.0840 
    111 H111       30.7557  -43.0871  -51.0497 H         1 UNK         0.0840 
    112 H112       29.7266  -48.1349  -51.0171 H         1 UNK         0.2987 
    113 H113       31.3085  -49.7406  -51.3849 H         1 UNK         0.0785 
    114 H114       29.2459  -51.0363  -50.7948 H         1 UNK         0.0798 
    115 H115       30.5793  -52.1238  -51.1382 H         1 UNK         0.0798 
    116 H116       29.3094  -51.8774  -52.3372 H         1 UNK         0.0798 
    117 H117       31.4813  -51.6626  -53.5130 H         1 UNK         0.3079 
    118 H118       33.8654  -51.4577  -54.6132 H         1 UNK         0.0794 
    119 H119       31.6758  -51.8988  -55.7440 H         1 UNK         0.0786 
    120 H120       32.8762  -51.5027  -56.9583 H         1 UNK         0.0786 
    121 H121       31.6897  -50.2983  -56.4685 H         1 UNK         0.0786 
    122 H122       33.9036  -48.6626  -55.3692 H         1 UNK         0.3032 
    123 H123       37.2847  -48.7538  -56.0447 H         1 UNK         0.1094 
    124 H124       36.8581  -47.3751  -58.0773 H         1 UNK         0.0794 
    125 H125       36.5842  -49.0742  -58.4236 H         1 UNK         0.0794 
    126 H126       35.2119  -48.0015  -58.1837 H         1 UNK         0.0794 
    127 H127       35.2310  -46.6943  -56.0951 H         1 UNK         0.3016 
@<TRIPOS>BOND
     1    1    2 1    
     2    1   67 1    
     3    1   68 1    
     4    1   69 1    
     5    2    3 2    
     6    2    4 am   BACKBONE|DICT|INTERRES
     7    4    5 1    
     8    4   70 1    
     9    5    6 1    
    10    5   65 1    
    11    5   71 1    
    12    6    7 1    
    13    6   72 1    
    14    6   73 1    
    15    7    8 1    
    16    8    9 1    
    17    8   74 1    
    18    8   75 1    
    19    9   10 ar   
    20    9   14 ar   
    21   10   11 ar   
    22   10   76 1    
    23   11   12 ar   
    24   11   48 1    
    25   12   13 ar   
    26   12   77 1    
    27   13   14 ar   
    28   13   15 1    
    29   14   78 1    
    30   15   16 1    
    31   15   79 1    
    32   15   80 1    
    33   16   17 1    
    34   17   18 1    
    35   17   81 1    
    36   17   82 1    
    37   18   19 1    
    38   18   22 1    
    39   18   83 1    
    40   19   20 am   BACKBONE|DICT|INTERRES
    41   19   21 2    
    42   20   84 1    
    43   20   85 1    
    44   22   23 am   BACKBONE|DICT|INTERRES
    45   22   86 1    
    46   23   24 2    
    47   23   25 1    
    48   25   26 1    
    49   25   27 1    
    50   25   87 1    
    51   26   88 1    
    52   26   89 1    
    53   26   90 1    
    54   27   28 am   BACKBONE|DICT|INTERRES
    55   27   91 1    
    56   28   29 2    
    57   28   30 1    
    58   30   31 1    
    59   30   32 1    
    60   30   92 1    
    61   31   93 1    
    62   31   94 1    
    63   31   95 1    
    64   32   33 am   BACKBONE|DICT|INTERRES
    65   32   96 1    
    66   33   34 2    
    67   33   35 1    
    68   35   36 1    
    69   35   37 1    
    70   35   97 1    
    71   36   98 1    
    72   36   99 1    
    73   36  100 1    
    74   37   38 am   BACKBONE|DICT|INTERRES
    75   37  101 1    
    76   38   39 2    
    77   38   40 1    
    78   40   41 1    
    79   40   42 1    
    80   40  102 1    
    81   41  103 1    
    82   41  104 1    
    83   41  105 1    
    84   42   43 am   BACKBONE|DICT|INTERRES
    85   42  106 1    
    86   43   44 2    
    87   43   45 1    
    88   45   46 1    
    89   45   49 1    
    90   45  107 1    
    91   46   47 1    
    92   46  108 1    
    93   46  109 1    
    94   47   48 1    
    95   48  110 1    
    96   48  111 1    
    97   49   50 am   BACKBONE|DICT|INTERRES
    98   49  112 1    
    99   50   51 2    
   100   50   52 1    
   101   52   53 1    
   102   52   54 1    
   103   52  113 1    
   104   53  114 1    
   105   53  115 1    
   106   53  116 1    
   107   54   55 am   BACKBONE|DICT|INTERRES
   108   54  117 1    
   109   55   56 2    
   110   55   57 1    
   111   57   58 1    
   112   57   59 1    
   113   57  118 1    
   114   58  119 1    
   115   58  120 1    
   116   58  121 1    
   117   59   60 am   BACKBONE|DICT|INTERRES
   118   59  122 1    
   119   60   61 2    
   120   60   62 1    
   121   62   63 1    
   122   62   64 1    
   123   62  123 1    
   124   63  124 1    
   125   63  125 1    
   126   63  126 1    
   127   64   65 am   BACKBONE|DICT|INTERRES
   128   64  127 1    
   129   65   66 2    
@<TRIPOS>SUBSTRUCTURE
     1 UNK         1 GROUP             0       ****    0 ROOT    
