@<TRIPOS>MOLECULE
3R134
127   129    1
SMALL
USER_CHARGES


@<TRIPOS>ATOM
      1 CA         36.4009  -44.7308  -52.6046 C.3       0 UNK        -0.1968 
      2 C          35.1709  -45.6091  -52.4379 C.2       0 UNK         0.4852 
      3 O          35.1175  -46.6990  -53.0036 O.2       0 UNK        -0.5359 
      4 N          34.1890  -45.1596  -51.6441 N.am      1 UNK        -0.4300 
      5 CA         32.8897  -45.8174  -51.4236 C.3       1 UNK         0.0863 
      6 C6         31.8756  -44.8377  -50.7695 C.3       11 UNK        -0.0953 
      7 S7         30.2405  -44.8557  -51.5813 S.3       11 UNK        -0.2369 
      8 C8         30.3643  -43.4515  -52.7366 C.3       11 UNK         0.0226 
      9 C9         30.5627  -43.8997  -54.1790 C.ar      11 UNK        -0.0699 
     10 C10        31.8158  -44.3291  -54.6284 C.ar      11 UNK        -0.0804 
     11 C11        32.0079  -44.6936  -55.9654 C.ar      11 UNK        -0.0871 
     12 C12        30.9417  -44.5920  -56.8636 C.ar      11 UNK        -0.1008 
     13 C13        29.6842  -44.1655  -56.4283 C.ar      11 UNK        -0.0735 
     14 C14        29.4969  -43.8371  -55.0821 C.ar      11 UNK        -0.0945 
     15 C15        28.5315  -44.0444  -57.4129 C.3       11 UNK         0.0169 
     16 S16        28.0816  -42.2988  -57.6680 S.3       11 UNK        -0.2669 
     17 C17        26.7659  -42.4168  -58.9247 C.3       11 UNK        -0.0850 
     18 CA         25.3455  -42.4115  -58.3001 C.3       10 UNK         0.0855 
     19 C          24.2770  -42.0738  -59.3684 C.2       10 UNK         0.5543 
     20 N          23.7566  -40.8546  -59.3653 N.am      10 UNK        -0.7343 
     21 O          23.9449  -42.8931  -60.2227 O.2       10 UNK        -0.5027 
     22 N          25.0313  -43.7126  -57.7060 N.am      10 UNK        -0.4495 
     23 C          24.8792  -43.9898  -56.4094 C.2       10 UNK         0.4903 
     24 O          24.9881  -43.1546  -55.5117 O.2       10 UNK        -0.4860 
     25 CA         24.5738  -45.4535  -56.0312 C.3       9 UNK         0.0227 
     26 CB         23.0544  -45.7041  -55.9781 C.3       9 UNK        -0.1964 
     27 N          25.2604  -46.4717  -56.8454 N.am      9 UNK        -0.4231 
     28 C          25.1018  -46.7646  -58.1483 C.2       9 UNK         0.5014 
     29 O          24.3127  -46.1758  -58.8874 O.2       9 UNK        -0.5270 
     30 CA         25.9886  -47.8677  -58.7569 C.3       8 UNK         0.0284 
     31 CB         27.0719  -47.2467  -59.6539 C.3       8 UNK        -0.1977 
     32 N          26.6239  -48.7221  -57.7522 N.am      8 UNK        -0.4342 
     33 C          25.9764  -49.6609  -57.0446 C.2       8 UNK         0.5039 
     34 O          24.7994  -49.9666  -57.2399 O.2       8 UNK        -0.5547 
     35 CA         26.7481  -50.3653  -55.9126 C.3       7 UNK         0.0281 
     36 CB         27.1576  -51.7827  -56.3430 C.3       7 UNK        -0.1963 
     37 N          27.9323  -49.6327  -55.4531 N.am      7 UNK        -0.4444 
     38 C          27.9076  -48.4276  -54.8608 C.2       7 UNK         0.5104 
     39 O          26.8705  -47.8058  -54.6282 O.2       7 UNK        -0.5100 
     40 CA         29.2604  -47.7812  -54.5146 C.3       6 UNK         0.0396 
     41 CB         29.6283  -48.0877  -53.0585 C.3       6 UNK        -0.1801 
     42 N          30.3672  -48.2015  -55.3757 N.am      6 UNK        -0.4747 
     43 C          30.4121  -48.0862  -56.7123 C.2       6 UNK         0.5012 
     44 O          29.5039  -47.6010  -57.3886 O.2       6 UNK        -0.5003 
     45 CA         31.6428  -48.6914  -57.4222 C.3       5 UNK         0.0782 
     46 C46        32.7147  -47.6183  -57.7422 C.3       11 UNK        -0.0868 
     47 S47        33.5898  -46.9641  -56.2737 S.3       11 UNK        -0.2515 
     48 C48        33.3756  -45.1620  -56.4436 C.3       11 UNK         0.0199 
     49 N          32.2136  -49.8465  -56.7148 N.am      5 UNK        -0.4607 
     50 C          31.5512  -50.9661  -56.3883 C.2       4 UNK         0.5031 
     51 O          30.3802  -51.1749  -56.7044 O.2       4 UNK        -0.5119 
     52 CA         32.2882  -52.0234  -55.5445 C.3       4 UNK         0.0263 
     53 CB         32.6507  -53.2387  -56.4136 C.3       4 UNK        -0.1967 
     54 N          33.4953  -51.5519  -54.8545 N.am      4 UNK        -0.4237 
     55 C          33.5437  -50.5888  -53.9232 C.2       3 UNK         0.4908 
     56 O          32.5685  -49.9152  -53.5810 O.2       3 UNK        -0.5102 
     57 CA         34.9321  -50.3301  -53.3141 C.3       3 UNK         0.0241 
     58 CB         35.8597  -49.6485  -54.3351 C.3       3 UNK        -0.1971 
     59 N          34.8471  -49.4942  -52.1164 N.am      3 UNK        -0.4139 
     60 C          34.5722  -49.9526  -50.8853 C.2       2 UNK         0.5016 
     61 O          34.4246  -51.1471  -50.6208 O.2       2 UNK        -0.5319 
     62 CA         34.4591  -48.9210  -49.7437 C.3       2 UNK         0.0286 
     63 CB         35.7575  -48.8839  -48.9209 C.3       2 UNK        -0.1963 
     64 N          34.1630  -47.5711  -50.2261 N.am      2 UNK        -0.4790 
     65 C          32.9657  -47.1749  -50.6800 C.2       1 UNK         0.5024 
     66 O          31.9454  -47.8494  -50.5424 O.2       1 UNK        -0.4888 
     67 H67        36.5385  -44.4793  -53.6559 H         1 UNK         0.0892 
     68 H68        37.2893  -45.2607  -52.2622 H         1 UNK         0.0892 
     69 H69        36.3197  -43.8016  -52.0410 H         1 UNK         0.0892 
     70 H70        34.3113  -44.2744  -51.1728 H         1 UNK         0.3107 
     71 H71        32.5251  -46.0798  -52.4186 H         1 UNK         0.0773 
     72 H72        31.7302  -45.0602  -49.7104 H         1 UNK         0.0680 
     73 H73        32.2504  -43.8137  -50.7814 H         1 UNK         0.0680 
     74 H74        29.4488  -42.8642  -52.6514 H         1 UNK         0.0650 
     75 H75        31.1721  -42.7776  -52.4501 H         1 UNK         0.0650 
     76 H76        32.6471  -44.3686  -53.9404 H         1 UNK         0.1397 
     77 H77        31.0874  -44.8467  -57.9037 H         1 UNK         0.1363 
     78 H78        28.5245  -43.5004  -54.7487 H         1 UNK         0.1355 
     79 H79        28.7965  -44.4917  -58.3718 H         1 UNK         0.0707 
     80 H80        27.6762  -44.6030  -57.0336 H         1 UNK         0.0707 
     81 H81        26.9179  -43.2981  -59.5512 H         1 UNK         0.1034 
     82 H82        26.8939  -41.5575  -59.5862 H         1 UNK         0.1034 
     83 H83        25.3047  -41.6360  -57.5322 H         1 UNK         0.0482 
     84 H84        24.0321  -40.1715  -58.6764 H         1 UNK         0.3460 
     85 H85        23.0702  -40.6127  -60.0631 H         1 UNK         0.3460 
     86 H86        24.8157  -44.4537  -58.3695 H         1 UNK         0.2989 
     87 H87        24.9600  -45.5944  -55.0203 H         1 UNK         0.0559 
     88 H88        22.8314  -46.7160  -55.6399 H         1 UNK         0.0848 
     89 H89        22.5817  -45.5633  -56.9506 H         1 UNK         0.0848 
     90 H90        22.5717  -45.0161  -55.2828 H         1 UNK         0.0848 
     91 H91        25.9410  -47.0173  -56.3266 H         1 UNK         0.3144 
     92 H92        25.3480  -48.4919  -59.3836 H         1 UNK         0.0727 
     93 H93        27.6936  -48.0131  -60.1169 H         1 UNK         0.0790 
     94 H94        27.7254  -46.5784  -59.0934 H         1 UNK         0.0790 
     95 H95        26.6245  -46.6624  -60.4592 H         1 UNK         0.0790 
     96 H96        27.5955  -48.5226  -57.5355 H         1 UNK         0.3215 
     97 H97        26.0668  -50.4502  -55.0633 H         1 UNK         0.0863 
     98 H98        27.6801  -52.3084  -55.5436 H         1 UNK         0.0808 
     99 H99        27.8102  -51.7653  -57.2167 H         1 UNK         0.0808 
    100 H100       26.2821  -52.3785  -56.6045 H         1 UNK         0.0808 
    101 H101       28.8319  -50.0549  -55.6559 H         1 UNK         0.3118 
    102 H102       29.1521  -46.7011  -54.6256 H         1 UNK         0.0546 
    103 H103       28.8623  -47.7231  -52.3729 H         1 UNK         0.0828 
    104 H104       30.5646  -47.6038  -52.7859 H         1 UNK         0.0828 
    105 H105       29.7469  -49.1579  -52.8848 H         1 UNK         0.0828 
    106 H106       31.1593  -48.6317  -54.9121 H         1 UNK         0.3005 
    107 H107       31.2713  -49.0728  -58.3760 H         1 UNK         0.1257 
    108 H108       33.4682  -48.0505  -58.4023 H         1 UNK         0.0775 
    109 H109       32.2733  -46.8010  -58.3133 H         1 UNK         0.0775 
    110 H110       34.1541  -44.6681  -55.8600 H         1 UNK         0.0840 
    111 H111       33.5449  -44.8638  -57.4794 H         1 UNK         0.0840 
    112 H112       33.1632  -49.7385  -56.3907 H         1 UNK         0.2987 
    113 H113       31.5861  -52.3527  -54.7756 H         1 UNK         0.0785 
    114 H114       33.3753  -52.9800  -57.1868 H         1 UNK         0.0798 
    115 H115       31.7681  -53.6384  -56.9156 H         1 UNK         0.0798 
    116 H116       33.0705  -54.0465  -55.8139 H         1 UNK         0.0798 
    117 H117       34.3516  -52.0361  -55.0840 H         1 UNK         0.3079 
    118 H118       35.3701  -51.2929  -53.0415 H         1 UNK         0.0794 
    119 H119       35.4424  -48.7075  -54.6933 H         1 UNK         0.0786 
    120 H120       36.0285  -50.2815  -55.2068 H         1 UNK         0.0786 
    121 H121       36.8361  -49.4332  -53.9008 H         1 UNK         0.0786 
    122 H122       34.9008  -48.4911  -52.2742 H         1 UNK         0.3032 
    123 H123       33.6465  -49.2461  -49.0897 H         1 UNK         0.1094 
    124 H124       35.6707  -48.2051  -48.0723 H         1 UNK         0.0794 
    125 H125       35.9935  -49.8712  -48.5210 H         1 UNK         0.0794 
    126 H126       36.6091  -48.5644  -49.5230 H         1 UNK         0.0794 
    127 H127       34.9498  -46.9558  -50.3734 H         1 UNK         0.3016 
@<TRIPOS>BOND
     1    1    2 1    
     2    1   67 1    
     3    1   68 1    
     4    1   69 1    
     5    2    3 2    
     6    2    4 am   BACKBONE|DICT|INTERRES
     7    4    5 1    
     8    4   70 1    
     9    5    6 1    
    10    5   65 1    
    11    5   71 1    
    12    6    7 1    
    13    6   72 1    
    14    6   73 1    
    15    7    8 1    
    16    8    9 1    
    17    8   74 1    
    18    8   75 1    
    19    9   10 ar   
    20    9   14 ar   
    21   10   11 ar   
    22   10   76 1    
    23   11   12 ar   
    24   11   48 1    
    25   12   13 ar   
    26   12   77 1    
    27   13   14 ar   
    28   13   15 1    
    29   14   78 1    
    30   15   16 1    
    31   15   79 1    
    32   15   80 1    
    33   16   17 1    
    34   17   18 1    
    35   17   81 1    
    36   17   82 1    
    37   18   19 1    
    38   18   22 1    
    39   18   83 1    
    40   19   20 am   BACKBONE|DICT|INTERRES
    41   19   21 2    
    42   20   84 1    
    43   20   85 1    
    44   22   23 am   BACKBONE|DICT|INTERRES
    45   22   86 1    
    46   23   24 2    
    47   23   25 1    
    48   25   26 1    
    49   25   27 1    
    50   25   87 1    
    51   26   88 1    
    52   26   89 1    
    53   26   90 1    
    54   27   28 am   BACKBONE|DICT|INTERRES
    55   27   91 1    
    56   28   29 2    
    57   28   30 1    
    58   30   31 1    
    59   30   32 1    
    60   30   92 1    
    61   31   93 1    
    62   31   94 1    
    63   31   95 1    
    64   32   33 am   BACKBONE|DICT|INTERRES
    65   32   96 1    
    66   33   34 2    
    67   33   35 1    
    68   35   36 1    
    69   35   37 1    
    70   35   97 1    
    71   36   98 1    
    72   36   99 1    
    73   36  100 1    
    74   37   38 am   BACKBONE|DICT|INTERRES
    75   37  101 1    
    76   38   39 2    
    77   38   40 1    
    78   40   41 1    
    79   40   42 1    
    80   40  102 1    
    81   41  103 1    
    82   41  104 1    
    83   41  105 1    
    84   42   43 am   BACKBONE|DICT|INTERRES
    85   42  106 1    
    86   43   44 2    
    87   43   45 1    
    88   45   46 1    
    89   45   49 1    
    90   45  107 1    
    91   46   47 1    
    92   46  108 1    
    93   46  109 1    
    94   47   48 1    
    95   48  110 1    
    96   48  111 1    
    97   49   50 am   BACKBONE|DICT|INTERRES
    98   49  112 1    
    99   50   51 2    
   100   50   52 1    
   101   52   53 1    
   102   52   54 1    
   103   52  113 1    
   104   53  114 1    
   105   53  115 1    
   106   53  116 1    
   107   54   55 am   BACKBONE|DICT|INTERRES
   108   54  117 1    
   109   55   56 2    
   110   55   57 1    
   111   57   58 1    
   112   57   59 1    
   113   57  118 1    
   114   58  119 1    
   115   58  120 1    
   116   58  121 1    
   117   59   60 am   BACKBONE|DICT|INTERRES
   118   59  122 1    
   119   60   61 2    
   120   60   62 1    
   121   62   63 1    
   122   62   64 1    
   123   62  123 1    
   124   63  124 1    
   125   63  125 1    
   126   63  126 1    
   127   64   65 am   BACKBONE|DICT|INTERRES
   128   64  127 1    
   129   65   66 2    
@<TRIPOS>SUBSTRUCTURE
     1 UNK         1 GROUP             0       ****    0 ROOT    
