@<TRIPOS>MOLECULE
3R134
127   129    1
SMALL
USER_CHARGES


@<TRIPOS>ATOM
      1 CA         33.5401  -46.1715  -48.7248 C.3       0 UNK        -0.1968 
      2 C          33.8817  -46.4489  -50.1810 C.2       0 UNK         0.4852 
      3 O          33.2458  -47.3027  -50.8033 O.2       0 UNK        -0.5359 
      4 N          34.8809  -45.7372  -50.7277 N.am      1 UNK        -0.4300 
      5 CA         35.3543  -45.8522  -52.1145 C.3       1 UNK         0.0863 
      6 C6         34.2535  -45.4031  -53.1210 C.3       11 UNK        -0.0953 
      7 S7         34.8896  -44.7897  -54.7189 S.3       11 UNK        -0.2369 
      8 C8         34.0850  -43.1551  -54.8610 C.3       11 UNK         0.0226 
      9 C9         32.5710  -43.2684  -54.9995 C.ar      11 UNK        -0.0699 
     10 C10        31.7545  -43.1680  -53.8698 C.ar      11 UNK        -0.0804 
     11 C11        30.3726  -43.3467  -53.9659 C.ar      11 UNK        -0.0871 
     12 C12        29.7978  -43.5779  -55.2182 C.ar      11 UNK        -0.1008 
     13 C13        30.5971  -43.6404  -56.3644 C.ar      11 UNK        -0.0735 
     14 C14        31.9836  -43.4861  -56.2501 C.ar      11 UNK        -0.0945 
     15 C15        29.9559  -43.9011  -57.7177 C.3       11 UNK         0.0169 
     16 S16        29.0446  -42.4376  -58.3012 S.3       11 UNK        -0.2669 
     17 C17        28.2286  -43.0886  -59.7988 C.3       11 UNK        -0.0850 
     18 CA         26.7414  -43.4634  -59.5566 C.3       10 UNK         0.0855 
     19 C          26.0247  -43.7880  -60.9017 C.2       10 UNK         0.5543 
     20 N          25.5352  -45.0013  -61.1326 N.am      10 UNK        -0.7343 
     21 O          25.9076  -42.9124  -61.7554 O.2       10 UNK        -0.5027 
     22 N          26.6172  -44.5118  -58.5343 N.am      10 UNK        -0.4495 
     23 C          25.5079  -44.8132  -57.8490 C.2       10 UNK         0.4903 
     24 O          24.4634  -44.1634  -57.9140 O.2       10 UNK        -0.4860 
     25 CA         25.5913  -46.0631  -56.9467 C.3       9 UNK         0.0227 
     26 CB         24.2135  -46.7045  -56.6828 C.3       9 UNK        -0.1964 
     27 N          26.5466  -47.0713  -57.4311 N.am      9 UNK        -0.4231 
     28 C          26.5381  -47.6966  -58.6197 C.2       9 UNK         0.5014 
     29 O          25.6909  -47.5030  -59.4924 O.2       9 UNK        -0.5270 
     30 CA         27.6877  -48.6714  -58.9018 C.3       8 UNK         0.0284 
     31 CB         28.9455  -47.9072  -59.3531 C.3       8 UNK        -0.1977 
     32 N          28.0004  -49.4878  -57.7254 N.am      8 UNK        -0.4342 
     33 C          27.8930  -50.8219  -57.6781 C.2       8 UNK         0.5039 
     34 O          27.5336  -51.5166  -58.6303 O.2       8 UNK        -0.5547 
     35 CA         28.2546  -51.5181  -56.3554 C.3       7 UNK         0.0281 
     36 CB         29.7385  -51.9208  -56.3412 C.3       7 UNK        -0.1963 
     37 N          27.9487  -50.7342  -55.1560 N.am      7 UNK        -0.4444 
     38 C          26.7078  -50.5100  -54.6980 C.2       7 UNK         0.5104 
     39 O          25.6855  -50.8486  -55.2944 O.2       7 UNK        -0.5100 
     40 CA         26.5821  -49.8139  -53.3350 C.3       6 UNK         0.0396 
     41 CB         26.8537  -50.8124  -52.1977 C.3       6 UNK        -0.1801 
     42 N          27.5146  -48.6944  -53.2246 N.am      6 UNK        -0.4747 
     43 C          27.1778  -47.4018  -53.3442 C.2       6 UNK         0.5012 
     44 O          26.0230  -47.0018  -53.4903 O.2       6 UNK        -0.5003 
     45 CA         28.3304  -46.3746  -53.3053 C.3       5 UNK         0.0782 
     46 C46        28.4878  -45.8220  -51.8655 C.3       11 UNK        -0.0868 
     47 S47        29.8987  -44.6951  -51.6033 S.3       11 UNK        -0.2515 
     48 C48        29.5204  -43.2933  -52.7061 C.3       11 UNK         0.0199 
     49 N          29.5832  -46.9094  -53.8512 N.am      5 UNK        -0.4607 
     50 C          29.7408  -47.3537  -55.1053 C.2       4 UNK         0.5031 
     51 O          28.8506  -47.3305  -55.9540 O.2       4 UNK        -0.5119 
     52 CA         31.0846  -47.9967  -55.4716 C.3       4 UNK         0.0263 
     53 CB         31.9991  -46.9795  -56.1641 C.3       4 UNK        -0.1967 
     54 N          31.7980  -48.5973  -54.3438 N.am      4 UNK        -0.4237 
     55 C          31.3551  -49.5816  -53.5476 C.2       3 UNK         0.4908 
     56 O          30.2107  -50.0378  -53.6056 O.2       3 UNK        -0.5102 
     57 CA         32.3445  -50.1250  -52.4963 C.3       3 UNK         0.0241 
     58 CB         32.2312  -51.6545  -52.3252 C.3       3 UNK        -0.1971 
     59 N          33.7363  -49.6982  -52.7245 N.am      3 UNK        -0.4139 
     60 C          34.5497  -50.0398  -53.7408 C.2       2 UNK         0.5016 
     61 O          34.2592  -50.8774  -54.5954 O.2       2 UNK        -0.5319 
     62 CA         35.8734  -49.2554  -53.8647 C.3       2 UNK         0.0286 
     63 CB         36.4876  -49.3537  -55.2742 C.3       2 UNK        -0.1963 
     64 N          35.6560  -47.8411  -53.5457 N.am      2 UNK        -0.4790 
     65 C          35.9277  -47.2687  -52.3678 C.2       1 UNK         0.5024 
     66 O          36.5652  -47.8344  -51.4764 O.2       1 UNK        -0.4888 
     67 H67        33.6611  -47.0781  -48.1327 H         1 UNK         0.0892 
     68 H68        32.5038  -45.8447  -48.6414 H         1 UNK         0.0892 
     69 H69        34.1761  -45.3974  -48.2960 H         1 UNK         0.0892 
     70 H70        35.3917  -45.0829  -50.1513 H         1 UNK         0.3107 
     71 H71        36.1968  -45.1639  -52.1981 H         1 UNK         0.0773 
     72 H72        33.6962  -44.5918  -52.6585 H         1 UNK         0.0680 
     73 H73        33.5132  -46.1850  -53.2964 H         1 UNK         0.0680 
     74 H74        34.3467  -42.5462  -53.9942 H         1 UNK         0.0650 
     75 H75        34.4936  -42.6378  -55.7301 H         1 UNK         0.0650 
     76 H76        32.1937  -42.9788  -52.9004 H         1 UNK         0.1397 
     77 H77        28.7281  -43.7048  -55.3098 H         1 UNK         0.1363 
     78 H78        32.6091  -43.5558  -57.1295 H         1 UNK         0.1355 
     79 H79        29.2809  -44.7528  -57.6301 H         1 UNK         0.0707 
     80 H80        30.7096  -44.1763  -58.4572 H         1 UNK         0.0707 
     81 H81        28.7864  -43.9428  -60.1874 H         1 UNK         0.1034 
     82 H82        28.3033  -42.3129  -60.5637 H         1 UNK         0.1034 
     83 H83        26.2406  -42.5753  -59.1659 H         1 UNK         0.0482 
     84 H84        25.6098  -45.7429  -60.4445 H         1 UNK         0.3460 
     85 H85        25.0734  -45.1826  -62.0093 H         1 UNK         0.3460 
     86 H86        27.4181  -45.1110  -58.4178 H         1 UNK         0.2989 
     87 H87        25.9816  -45.7144  -55.9898 H         1 UNK         0.0559 
     88 H88        24.3014  -47.5673  -56.0220 H         1 UNK         0.0848 
     89 H89        23.7365  -47.0340  -57.6063 H         1 UNK         0.0848 
     90 H90        23.5375  -45.9979  -56.2000 H         1 UNK         0.0848 
     91 H91        27.3452  -47.2330  -56.8171 H         1 UNK         0.3144 
     92 H92        27.3689  -49.3037  -59.7331 H         1 UNK         0.0727 
     93 H93        29.7444  -48.5958  -59.6286 H         1 UNK         0.0790 
     94 H94        29.3301  -47.2485  -58.5745 H         1 UNK         0.0790 
     95 H95        28.7346  -47.2909  -60.2282 H         1 UNK         0.0790 
     96 H96        28.2899  -48.9886  -56.8917 H         1 UNK         0.3215 
     97 H97        27.6639  -52.4358  -56.3059 H         1 UNK         0.0863 
     98 H98        29.9893  -52.4815  -55.4405 H         1 UNK         0.0808 
     99 H99        30.3968  -51.0543  -56.3874 H         1 UNK         0.0808 
    100 H100       29.9778  -52.5562  -57.1950 H         1 UNK         0.0808 
    101 H101       28.7429  -50.4547  -54.5825 H         1 UNK         0.3118 
    102 H102       25.5528  -49.4634  -53.2326 H         1 UNK         0.0546 
    103 H103       26.1763  -51.6654  -52.2569 H         1 UNK         0.0828 
    104 H104       26.7053  -50.3490  -51.2223 H         1 UNK         0.0828 
    105 H105       27.8725  -51.2011  -52.2310 H         1 UNK         0.0828 
    106 H106       28.4970  -48.9320  -53.1413 H         1 UNK         0.3005 
    107 H107       28.0261  -45.5536  -53.9556 H         1 UNK         0.1257 
    108 H108       28.6108  -46.6449  -51.1583 H         1 UNK         0.0775 
    109 H109       27.5786  -45.3001  -51.5600 H         1 UNK         0.0775 
    110 H110       28.4562  -43.2711  -52.9446 H         1 UNK         0.0840 
    111 H111       29.7314  -42.3635  -52.1758 H         1 UNK         0.0840 
    112 H112       30.3680  -46.9432  -53.2173 H         1 UNK         0.2987 
    113 H113       30.8725  -48.7942  -56.1845 H         1 UNK         0.0785 
    114 H114       32.2692  -46.1681  -55.4894 H         1 UNK         0.0798 
    115 H115       31.5064  -46.5350  -57.0298 H         1 UNK         0.0798 
    116 H116       32.9192  -47.4433  -56.5200 H         1 UNK         0.0798 
    117 H117       32.7459  -48.2884  -54.2001 H         1 UNK         0.3079 
    118 H118       32.0466  -49.6699  -51.5507 H         1 UNK         0.0794 
    119 H119       32.4127  -52.1845  -53.2605 H         1 UNK         0.0786 
    120 H120       31.2330  -51.9352  -51.9869 H         1 UNK         0.0786 
    121 H121       32.9394  -52.0251  -51.5842 H         1 UNK         0.0786 
    122 H122       34.0569  -48.9812  -52.0827 H         1 UNK         0.3032 
    123 H123       36.5763  -49.7060  -53.1601 H         1 UNK         0.1094 
    124 H124       35.8103  -48.9701  -56.0383 H         1 UNK         0.0794 
    125 H125       37.4195  -48.7918  -55.3395 H         1 UNK         0.0794 
    126 H126       36.7183  -50.3886  -55.5307 H         1 UNK         0.0794 
    127 H127       35.1756  -47.2845  -54.2406 H         1 UNK         0.3016 
@<TRIPOS>BOND
     1    1    2 1    
     2    1   67 1    
     3    1   68 1    
     4    1   69 1    
     5    2    3 2    
     6    2    4 am   BACKBONE|DICT|INTERRES
     7    4    5 1    
     8    4   70 1    
     9    5    6 1    
    10    5   65 1    
    11    5   71 1    
    12    6    7 1    
    13    6   72 1    
    14    6   73 1    
    15    7    8 1    
    16    8    9 1    
    17    8   74 1    
    18    8   75 1    
    19    9   10 ar   
    20    9   14 ar   
    21   10   11 ar   
    22   10   76 1    
    23   11   12 ar   
    24   11   48 1    
    25   12   13 ar   
    26   12   77 1    
    27   13   14 ar   
    28   13   15 1    
    29   14   78 1    
    30   15   16 1    
    31   15   79 1    
    32   15   80 1    
    33   16   17 1    
    34   17   18 1    
    35   17   81 1    
    36   17   82 1    
    37   18   19 1    
    38   18   22 1    
    39   18   83 1    
    40   19   20 am   BACKBONE|DICT|INTERRES
    41   19   21 2    
    42   20   84 1    
    43   20   85 1    
    44   22   23 am   BACKBONE|DICT|INTERRES
    45   22   86 1    
    46   23   24 2    
    47   23   25 1    
    48   25   26 1    
    49   25   27 1    
    50   25   87 1    
    51   26   88 1    
    52   26   89 1    
    53   26   90 1    
    54   27   28 am   BACKBONE|DICT|INTERRES
    55   27   91 1    
    56   28   29 2    
    57   28   30 1    
    58   30   31 1    
    59   30   32 1    
    60   30   92 1    
    61   31   93 1    
    62   31   94 1    
    63   31   95 1    
    64   32   33 am   BACKBONE|DICT|INTERRES
    65   32   96 1    
    66   33   34 2    
    67   33   35 1    
    68   35   36 1    
    69   35   37 1    
    70   35   97 1    
    71   36   98 1    
    72   36   99 1    
    73   36  100 1    
    74   37   38 am   BACKBONE|DICT|INTERRES
    75   37  101 1    
    76   38   39 2    
    77   38   40 1    
    78   40   41 1    
    79   40   42 1    
    80   40  102 1    
    81   41  103 1    
    82   41  104 1    
    83   41  105 1    
    84   42   43 am   BACKBONE|DICT|INTERRES
    85   42  106 1    
    86   43   44 2    
    87   43   45 1    
    88   45   46 1    
    89   45   49 1    
    90   45  107 1    
    91   46   47 1    
    92   46  108 1    
    93   46  109 1    
    94   47   48 1    
    95   48  110 1    
    96   48  111 1    
    97   49   50 am   BACKBONE|DICT|INTERRES
    98   49  112 1    
    99   50   51 2    
   100   50   52 1    
   101   52   53 1    
   102   52   54 1    
   103   52  113 1    
   104   53  114 1    
   105   53  115 1    
   106   53  116 1    
   107   54   55 am   BACKBONE|DICT|INTERRES
   108   54  117 1    
   109   55   56 2    
   110   55   57 1    
   111   57   58 1    
   112   57   59 1    
   113   57  118 1    
   114   58  119 1    
   115   58  120 1    
   116   58  121 1    
   117   59   60 am   BACKBONE|DICT|INTERRES
   118   59  122 1    
   119   60   61 2    
   120   60   62 1    
   121   62   63 1    
   122   62   64 1    
   123   62  123 1    
   124   63  124 1    
   125   63  125 1    
   126   63  126 1    
   127   64   65 am   BACKBONE|DICT|INTERRES
   128   64  127 1    
   129   65   66 2    
@<TRIPOS>SUBSTRUCTURE
     1 UNK         1 GROUP             0       ****    0 ROOT    
