@<TRIPOS>MOLECULE
3R134
127   129    1
SMALL
USER_CHARGES


@<TRIPOS>ATOM
      1 CA         36.9566  -44.1520  -50.5659 C.3       0 UNK        -0.1968 
      2 C          36.4703  -45.2040  -51.5513 C.2       0 UNK         0.4852 
      3 O          37.2096  -46.1392  -51.8653 O.2       0 UNK        -0.5359 
      4 N          35.2287  -45.0696  -52.0359 N.am      1 UNK        -0.4300 
      5 CA         34.5849  -45.9681  -53.0031 C.3       1 UNK         0.0863 
      6 C6         33.4798  -45.2452  -53.8092 C.3       11 UNK        -0.0953 
      7 S7         34.1310  -43.8302  -54.7651 S.3       11 UNK        -0.2369 
      8 C8         32.9991  -42.4849  -54.2803 C.3       11 UNK         0.0226 
      9 C9         31.5523  -42.8394  -54.5889 C.ar      11 UNK        -0.0699 
     10 C10        30.6412  -43.0540  -53.5495 C.ar      11 UNK        -0.0804 
     11 C11        29.3407  -43.4804  -53.8283 C.ar      11 UNK        -0.0871 
     12 C12        28.9546  -43.6754  -55.1568 C.ar      11 UNK        -0.1008 
     13 C13        29.8470  -43.4470  -56.2054 C.ar      11 UNK        -0.0735 
     14 C14        31.1426  -43.0136  -55.9144 C.ar      11 UNK        -0.0945 
     15 C15        29.4557  -43.7664  -57.6407 C.3       11 UNK         0.0169 
     16 S16        28.8810  -42.3132  -58.5842 S.3       11 UNK        -0.2669 
     17 C17        27.0811  -42.0245  -58.3204 C.3       11 UNK        -0.0850 
     18 CA         26.1998  -43.0250  -57.5046 C.3       10 UNK         0.0855 
     19 C          24.7144  -42.5622  -57.3626 C.2       10 UNK         0.5543 
     20 N          24.4628  -41.2741  -57.1666 N.am      10 UNK        -0.7343 
     21 O          23.7798  -43.3615  -57.3741 O.2       10 UNK        -0.5027 
     22 N          26.3193  -44.4218  -57.9531 N.am      10 UNK        -0.4495 
     23 C          26.0111  -44.9045  -59.1635 C.2       10 UNK         0.4903 
     24 O          25.5509  -44.2265  -60.0831 O.2       10 UNK        -0.4860 
     25 CA         26.2960  -46.3967  -59.4097 C.3       9 UNK         0.0227 
     26 CB         27.5838  -46.5578  -60.2321 C.3       9 UNK        -0.1964 
     27 N          26.4009  -47.1889  -58.1771 N.am      9 UNK        -0.4231 
     28 C          25.3457  -47.6527  -57.4924 C.2       9 UNK         0.5014 
     29 O          24.1773  -47.4418  -57.8249 O.2       9 UNK        -0.5270 
     30 CA         25.6437  -48.4872  -56.2279 C.3       8 UNK         0.0284 
     31 CB         24.4010  -49.2229  -55.6844 C.3       8 UNK        -0.1977 
     32 N          26.7603  -49.4269  -56.3819 N.am      8 UNK        -0.4342 
     33 C          26.9135  -50.3943  -57.2984 C.2       8 UNK         0.5039 
     34 O          26.0853  -50.6580  -58.1728 O.2       8 UNK        -0.5547 
     35 CA         28.2331  -51.1922  -57.2134 C.3       7 UNK         0.0281 
     36 CB         28.4326  -52.1652  -58.3948 C.3       7 UNK        -0.1963 
     37 N          29.4047  -50.3209  -57.0525 N.am      7 UNK        -0.4444 
     38 C          29.8023  -49.3341  -57.8695 C.2       7 UNK         0.5104 
     39 O          29.2861  -49.0870  -58.9590 O.2       7 UNK        -0.5100 
     40 CA         30.9459  -48.4470  -57.3381 C.3       6 UNK         0.0396 
     41 CB         31.2535  -47.2404  -58.2480 C.3       6 UNK        -0.1801 
     42 N          30.6989  -48.0026  -55.9611 N.am      6 UNK        -0.4747 
     43 C          29.6407  -47.3126  -55.5016 C.2       6 UNK         0.5012 
     44 O          28.7255  -46.8993  -56.2190 O.2       6 UNK        -0.5003 
     45 CA         29.6007  -47.1110  -53.9666 C.3       5 UNK         0.0782 
     46 C46        28.2710  -46.4952  -53.4320 C.3       11 UNK        -0.0868 
     47 S47        28.5870  -45.4286  -51.9870 S.3       11 UNK        -0.2515 
     48 C48        28.3606  -43.7629  -52.6969 C.3       11 UNK         0.0199 
     49 N          29.9648  -48.3511  -53.2589 N.am      5 UNK        -0.4607 
     50 C          29.2790  -49.5042  -53.3305 C.2       4 UNK         0.5031 
     51 O          28.2583  -49.6432  -54.0062 O.2       4 UNK        -0.5119 
     52 CA         29.8444  -50.7116  -52.5587 C.3       4 UNK         0.0263 
     53 CB         29.0626  -52.0124  -52.8411 C.3       4 UNK        -0.1967 
     54 N          31.2751  -50.9325  -52.7906 N.am      4 UNK        -0.4237 
     55 C          31.9162  -51.0536  -53.9616 C.2       3 UNK         0.4908 
     56 O          31.3599  -50.9538  -55.0566 O.2       3 UNK        -0.5102 
     57 CA         33.4390  -51.3075  -53.8913 C.3       3 UNK         0.0241 
     58 CB         34.1064  -51.2533  -55.2789 C.3       3 UNK        -0.1971 
     59 N          34.1316  -50.3712  -52.9987 N.am      3 UNK        -0.4139 
     60 C          34.0818  -50.3713  -51.6591 C.2       2 UNK         0.5016 
     61 O          33.4773  -51.2219  -51.0043 O.2       2 UNK        -0.5319 
     62 CA         34.7732  -49.2135  -50.9191 C.3       2 UNK         0.0286 
     63 CB         36.1141  -49.6786  -50.3292 C.3       2 UNK        -0.1963 
     64 N          35.0007  -48.0104  -51.7270 N.am      2 UNK        -0.4790 
     65 C          34.0642  -47.2436  -52.3034 C.2       1 UNK         0.5024 
     66 O          32.8579  -47.5046  -52.2850 O.2       1 UNK        -0.4888 
     67 H67        37.2081  -44.6182  -49.6136 H         1 UNK         0.0892 
     68 H68        37.8498  -43.6618  -50.9523 H         1 UNK         0.0892 
     69 H69        36.2031  -43.3866  -50.3809 H         1 UNK         0.0892 
     70 H70        34.6618  -44.2938  -51.7260 H         1 UNK         0.3107 
     71 H71        35.3401  -46.2969  -53.7207 H         1 UNK         0.0773 
     72 H72        33.0101  -45.9283  -54.5196 H         1 UNK         0.0680 
     73 H73        32.6886  -44.9120  -53.1367 H         1 UNK         0.0680 
     74 H74        33.1333  -42.2694  -53.2192 H         1 UNK         0.0650 
     75 H75        33.2724  -41.5767  -54.8191 H         1 UNK         0.0650 
     76 H76        30.9529  -42.9279  -52.5216 H         1 UNK         0.1397 
     77 H77        27.9705  -44.0578  -55.3680 H         1 UNK         0.1363 
     78 H78        31.8518  -42.8632  -56.7171 H         1 UNK         0.1355 
     79 H79        28.7592  -44.5970  -57.6785 H         1 UNK         0.0707 
     80 H80        30.3417  -44.1407  -58.1551 H         1 UNK         0.0707 
     81 H81        26.6421  -41.8906  -59.3105 H         1 UNK         0.1034 
     82 H82        27.0263  -41.0393  -57.8562 H         1 UNK         0.1034 
     83 H83        26.5594  -43.0063  -56.4812 H         1 UNK         0.0482 
     84 H84        25.2023  -40.5920  -57.1145 H         1 UNK         0.3460 
     85 H85        23.5052  -40.9789  -57.0558 H         1 UNK         0.3460 
     86 H86        26.6497  -45.0794  -57.2631 H         1 UNK         0.2989 
     87 H87        25.4710  -46.7894  -60.0079 H         1 UNK         0.0559 
     88 H88        27.7382  -47.5966  -60.5231 H         1 UNK         0.0848 
     89 H89        27.5398  -45.9714  -61.1510 H         1 UNK         0.0848 
     90 H90        28.4620  -46.2283  -59.6776 H         1 UNK         0.0848 
     91 H91        27.3311  -47.3827  -57.8203 H         1 UNK         0.3144 
     92 H92        25.9604  -47.7727  -55.4666 H         1 UNK         0.0727 
     93 H93        24.6325  -49.7664  -54.7683 H         1 UNK         0.0790 
     94 H94        24.0078  -49.9371  -56.4087 H         1 UNK         0.0790 
     95 H95        23.5999  -48.5210  -55.4493 H         1 UNK         0.0790 
     96 H96        27.4803  -49.3526  -55.6642 H         1 UNK         0.3215 
     97 H97        28.1696  -51.7881  -56.3015 H         1 UNK         0.0863 
     98 H98        29.3591  -52.7297  -58.2910 H         1 UNK         0.0808 
     99 H99        28.4631  -51.6413  -59.3506 H         1 UNK         0.0808 
    100 H100       27.6170  -52.8874  -58.4466 H         1 UNK         0.0808 
    101 H101       29.9473  -50.4619  -56.2015 H         1 UNK         0.3118 
    102 H102       31.8364  -49.0766  -57.3073 H         1 UNK         0.0546 
    103 H103       30.3912  -46.5832  -58.3476 H         1 UNK         0.0828 
    104 H104       31.5305  -47.5676  -59.2507 H         1 UNK         0.0828 
    105 H105       32.0816  -46.6490  -57.8577 H         1 UNK         0.0828 
    106 H106       31.3501  -48.3584  -55.2754 H         1 UNK         0.3005 
    107 H107       30.4054  -46.3977  -53.7769 H         1 UNK         0.1257 
    108 H108       27.7377  -45.9144  -54.1810 H         1 UNK         0.0775 
    109 H109       27.5602  -47.2674  -53.1371 H         1 UNK         0.0775 
    110 H110       27.3322  -43.6553  -53.0455 H         1 UNK         0.0840 
    111 H111       28.4897  -43.0219  -51.9065 H         1 UNK         0.0840 
    112 H112       30.8149  -48.3101  -52.7079 H         1 UNK         0.2987 
    113 H113       29.7312  -50.4774  -51.4992 H         1 UNK         0.0785 
    114 H114       29.4443  -52.8414  -52.2453 H         1 UNK         0.0798 
    115 H115       29.1233  -52.2996  -53.8914 H         1 UNK         0.0798 
    116 H116       28.0062  -51.8977  -52.5945 H         1 UNK         0.0798 
    117 H117       31.8505  -51.0270  -51.9566 H         1 UNK         0.3079 
    118 H118       33.5716  -52.3173  -53.4972 H         1 UNK         0.0794 
    119 H119       33.6604  -51.9821  -55.9572 H         1 UNK         0.0786 
    120 H120       35.1704  -51.4828  -55.2175 H         1 UNK         0.0786 
    121 H121       33.9997  -50.2707  -55.7404 H         1 UNK         0.0786 
    122 H122       34.6383  -49.6190  -53.4415 H         1 UNK         0.3032 
    123 H123       34.1151  -48.9310  -50.0944 H         1 UNK         0.1094 
    124 H124       35.9801  -50.5551  -49.6933 H         1 UNK         0.0794 
    125 H125       36.8264  -49.9476  -51.1103 H         1 UNK         0.0794 
    126 H126       36.5683  -48.9014  -49.7140 H         1 UNK         0.0794 
    127 H127       35.9570  -47.6678  -51.7747 H         1 UNK         0.3016 
@<TRIPOS>BOND
     1    1    2 1    
     2    1   67 1    
     3    1   68 1    
     4    1   69 1    
     5    2    3 2    
     6    2    4 am   BACKBONE|DICT|INTERRES
     7    4    5 1    
     8    4   70 1    
     9    5    6 1    
    10    5   65 1    
    11    5   71 1    
    12    6    7 1    
    13    6   72 1    
    14    6   73 1    
    15    7    8 1    
    16    8    9 1    
    17    8   74 1    
    18    8   75 1    
    19    9   10 ar   
    20    9   14 ar   
    21   10   11 ar   
    22   10   76 1    
    23   11   12 ar   
    24   11   48 1    
    25   12   13 ar   
    26   12   77 1    
    27   13   14 ar   
    28   13   15 1    
    29   14   78 1    
    30   15   16 1    
    31   15   79 1    
    32   15   80 1    
    33   16   17 1    
    34   17   18 1    
    35   17   81 1    
    36   17   82 1    
    37   18   19 1    
    38   18   22 1    
    39   18   83 1    
    40   19   20 am   BACKBONE|DICT|INTERRES
    41   19   21 2    
    42   20   84 1    
    43   20   85 1    
    44   22   23 am   BACKBONE|DICT|INTERRES
    45   22   86 1    
    46   23   24 2    
    47   23   25 1    
    48   25   26 1    
    49   25   27 1    
    50   25   87 1    
    51   26   88 1    
    52   26   89 1    
    53   26   90 1    
    54   27   28 am   BACKBONE|DICT|INTERRES
    55   27   91 1    
    56   28   29 2    
    57   28   30 1    
    58   30   31 1    
    59   30   32 1    
    60   30   92 1    
    61   31   93 1    
    62   31   94 1    
    63   31   95 1    
    64   32   33 am   BACKBONE|DICT|INTERRES
    65   32   96 1    
    66   33   34 2    
    67   33   35 1    
    68   35   36 1    
    69   35   37 1    
    70   35   97 1    
    71   36   98 1    
    72   36   99 1    
    73   36  100 1    
    74   37   38 am   BACKBONE|DICT|INTERRES
    75   37  101 1    
    76   38   39 2    
    77   38   40 1    
    78   40   41 1    
    79   40   42 1    
    80   40  102 1    
    81   41  103 1    
    82   41  104 1    
    83   41  105 1    
    84   42   43 am   BACKBONE|DICT|INTERRES
    85   42  106 1    
    86   43   44 2    
    87   43   45 1    
    88   45   46 1    
    89   45   49 1    
    90   45  107 1    
    91   46   47 1    
    92   46  108 1    
    93   46  109 1    
    94   47   48 1    
    95   48  110 1    
    96   48  111 1    
    97   49   50 am   BACKBONE|DICT|INTERRES
    98   49  112 1    
    99   50   51 2    
   100   50   52 1    
   101   52   53 1    
   102   52   54 1    
   103   52  113 1    
   104   53  114 1    
   105   53  115 1    
   106   53  116 1    
   107   54   55 am   BACKBONE|DICT|INTERRES
   108   54  117 1    
   109   55   56 2    
   110   55   57 1    
   111   57   58 1    
   112   57   59 1    
   113   57  118 1    
   114   58  119 1    
   115   58  120 1    
   116   58  121 1    
   117   59   60 am   BACKBONE|DICT|INTERRES
   118   59  122 1    
   119   60   61 2    
   120   60   62 1    
   121   62   63 1    
   122   62   64 1    
   123   62  123 1    
   124   63  124 1    
   125   63  125 1    
   126   63  126 1    
   127   64   65 am   BACKBONE|DICT|INTERRES
   128   64  127 1    
   129   65   66 2    
@<TRIPOS>SUBSTRUCTURE
     1 UNK         1 GROUP             0       ****    0 ROOT    
