@<TRIPOS>MOLECULE
3R134
127   129    1
SMALL
USER_CHARGES


@<TRIPOS>ATOM
      1 CA         28.4791  -44.7636  -50.4228 C.3       0 UNK        -0.1968 
      2 C          29.9715  -45.0491  -50.3361 C.2       0 UNK         0.4852 
      3 O          30.4785  -45.3055  -49.2425 O.2       0 UNK        -0.5359 
      4 N          30.6779  -44.9956  -51.4726 N.am      1 UNK        -0.4300 
      5 CA         32.1091  -45.2939  -51.5863 C.3       1 UNK         0.0863 
      6 C6         32.6824  -44.8520  -52.9552 C.3       11 UNK        -0.0953 
      7 S7         32.7674  -43.0371  -53.0695 S.3       11 UNK        -0.2369 
      8 C8         33.6617  -42.8115  -54.6390 C.3       11 UNK         0.0226 
      9 C9         32.7285  -42.8455  -55.8411 C.ar      11 UNK        -0.0699 
     10 C10        32.8372  -43.8531  -56.8054 C.ar      11 UNK        -0.0804 
     11 C11        32.0021  -43.8485  -57.9282 C.ar      11 UNK        -0.0871 
     12 C12        31.0521  -42.8347  -58.0789 C.ar      11 UNK        -0.1008 
     13 C13        30.9204  -41.8365  -57.1112 C.ar      11 UNK        -0.0735 
     14 C14        31.7703  -41.8402  -56.0022 C.ar      11 UNK        -0.0945 
     15 C15        29.8534  -40.7597  -57.2550 C.3       11 UNK         0.0169 
     16 S16        28.1621  -41.4419  -57.2207 S.3       11 UNK        -0.2669 
     17 C17        28.1601  -42.4055  -55.6661 C.3       11 UNK        -0.0850 
     18 CA         28.0622  -43.9409  -55.9187 C.3       10 UNK         0.0855 
     19 C          28.2919  -44.7699  -54.6185 C.2       10 UNK         0.5543 
     20 N          27.5568  -45.8468  -54.3708 N.am      10 UNK        -0.7343 
     21 O          29.1731  -44.4473  -53.8263 O.2       10 UNK        -0.5027 
     22 N          26.8641  -44.3292  -56.6872 N.am      10 UNK        -0.4495 
     23 C          25.5876  -44.1403  -56.3216 C.2       10 UNK         0.4903 
     24 O          25.2375  -43.5436  -55.3032 O.2       10 UNK        -0.4860 
     25 CA         24.5017  -44.7364  -57.2386 C.3       9 UNK         0.0227 
     26 CB         23.9944  -43.6701  -58.2234 C.3       9 UNK        -0.1964 
     27 N          24.9137  -45.9314  -57.9870 N.am      9 UNK        -0.4231 
     28 C          25.3496  -47.0772  -57.4436 C.2       9 UNK         0.5014 
     29 O          25.4744  -47.2472  -56.2275 O.2       9 UNK        -0.5270 
     30 CA         25.7004  -48.2063  -58.4295 C.3       8 UNK         0.0284 
     31 CB         26.6897  -47.7322  -59.5132 C.3       8 UNK        -0.1977 
     32 N          26.3155  -49.3147  -57.7038 N.am      8 UNK        -0.4342 
     33 C          25.8075  -50.5440  -57.5514 C.2       8 UNK         0.5039 
     34 O          24.7511  -50.9133  -58.0673 O.2       8 UNK        -0.5547 
     35 CA         26.6087  -51.5508  -56.6982 C.3       7 UNK         0.0281 
     36 CB         27.2378  -52.6316  -57.5930 C.3       7 UNK        -0.1963 
     37 N          27.6662  -50.9254  -55.9001 N.am      7 UNK        -0.4444 
     38 C          27.4572  -50.2088  -54.7852 C.2       7 UNK         0.5104 
     39 O          26.3626  -50.1232  -54.2283 O.2       7 UNK        -0.5100 
     40 CA         28.6607  -49.4438  -54.1957 C.3       6 UNK         0.0396 
     41 CB         29.2020  -50.1837  -52.9630 C.3       6 UNK        -0.1801 
     42 N          29.7572  -49.2128  -55.1458 N.am      6 UNK        -0.4747 
     43 C          29.6541  -48.5343  -56.3027 C.2       6 UNK         0.5012 
     44 O          28.6278  -47.9523  -56.6460 O.2       6 UNK        -0.5003 
     45 CA         30.8508  -48.5625  -57.2819 C.3       5 UNK         0.0782 
     46 C46        31.5315  -47.1730  -57.3948 C.3       11 UNK        -0.0868 
     47 S47        30.8335  -46.2017  -58.7696 S.3       11 UNK        -0.2515 
     48 C48        32.1160  -44.9314  -58.9884 C.3       11 UNK         0.0199 
     49 N          31.8221  -49.6224  -56.9963 N.am      5 UNK        -0.4607 
     50 C          31.5747  -50.9402  -57.0211 C.2       4 UNK         0.5031 
     51 O          30.4961  -51.4232  -57.3673 O.2       4 UNK        -0.5119 
     52 CA         32.6969  -51.8702  -56.5156 C.3       4 UNK         0.0263 
     53 CB         33.4379  -52.5067  -57.7022 C.3       4 UNK        -0.1967 
     54 N          33.6718  -51.2172  -55.6270 N.am      4 UNK        -0.4237 
     55 C          33.3713  -50.6024  -54.4736 C.2       3 UNK         0.4908 
     56 O          32.2273  -50.5373  -54.0162 O.2       3 UNK        -0.5102 
     57 CA         34.5217  -49.8901  -53.7515 C.3       3 UNK         0.0241 
     58 CB         35.1080  -48.7512  -54.6114 C.3       3 UNK        -0.1971 
     59 N          34.0056  -49.3372  -52.5046 N.am      3 UNK        -0.4139 
     60 C          34.7109  -49.0402  -51.4118 C.2       2 UNK         0.5016 
     61 O          35.9305  -49.1952  -51.3186 O.2       2 UNK        -0.5319 
     62 CA         33.9116  -48.4302  -50.2455 C.3       2 UNK         0.0286 
     63 CB         34.7241  -48.3710  -48.9382 C.3       2 UNK        -0.1963 
     64 N          33.4504  -47.0794  -50.5775 N.am      2 UNK        -0.4790 
     65 C          32.3835  -46.7893  -51.3347 C.2       1 UNK         0.5024 
     66 O          31.6555  -47.6442  -51.8436 O.2       1 UNK        -0.4888 
     67 H67        28.1784  -44.0846  -49.6254 H         1 UNK         0.0892 
     68 H68        27.9137  -45.6887  -50.3153 H         1 UNK         0.0892 
     69 H69        28.2062  -44.3039  -51.3718 H         1 UNK         0.0892 
     70 H70        30.1997  -44.7882  -52.3487 H         1 UNK         0.3107 
     71 H71        32.6202  -44.7295  -50.8029 H         1 UNK         0.0773 
     72 H72        33.6927  -45.2412  -53.0974 H         1 UNK         0.0680 
     73 H73        32.0791  -45.2394  -53.7791 H         1 UNK         0.0680 
     74 H74        34.4502  -43.5604  -54.7274 H         1 UNK         0.0650 
     75 H75        34.1636  -41.8433  -54.6149 H         1 UNK         0.0650 
     76 H76        33.5756  -44.6343  -56.6875 H         1 UNK         0.1397 
     77 H77        30.3959  -42.8352  -58.9389 H         1 UNK         0.1363 
     78 H78        31.6823  -41.0657  -55.2524 H         1 UNK         0.1355 
     79 H79        30.0030  -40.2307  -58.1971 H         1 UNK         0.0707 
     80 H80        29.9462  -40.0125  -56.4651 H         1 UNK         0.0707 
     81 H81        27.3329  -42.0608  -55.0450 H         1 UNK         0.1034 
     82 H82        29.0598  -42.1674  -55.0971 H         1 UNK         0.1034 
     83 H83        28.9039  -44.2152  -56.5557 H         1 UNK         0.0482 
     84 H84        27.7238  -46.3723  -53.5305 H         1 UNK         0.3460 
     85 H85        26.8690  -46.1700  -55.0412 H         1 UNK         0.3460 
     86 H86        27.0434  -44.8518  -57.5312 H         1 UNK         0.2989 
     87 H87        23.6674  -45.0310  -56.5987 H         1 UNK         0.0559 
     88 H88        23.1522  -44.0364  -58.8107 H         1 UNK         0.0848 
     89 H89        24.7769  -43.3535  -58.9143 H         1 UNK         0.0848 
     90 H90        23.6522  -42.7805  -57.6923 H         1 UNK         0.0848 
     91 H91        24.8367  -45.8778  -58.9925 H         1 UNK         0.3144 
     92 H92        24.7743  -48.5282  -58.9097 H         1 UNK         0.0727 
     93 H93        27.0027  -48.5608  -60.1488 H         1 UNK         0.0790 
     94 H94        27.5885  -47.2929  -59.0777 H         1 UNK         0.0790 
     95 H95        26.2426  -46.9843  -60.1683 H         1 UNK         0.0790 
     96 H96        27.1397  -49.0507  -57.1699 H         1 UNK         0.3215 
     97 H97        25.9036  -52.0363  -56.0199 H         1 UNK         0.0863 
     98 H98        27.7677  -53.3788  -57.0019 H         1 UNK         0.0808 
     99 H99        27.9455  -52.2036  -58.3043 H         1 UNK         0.0808 
    100 H100       26.4741  -53.1565  -58.1686 H         1 UNK         0.0808 
    101 H101       28.6057  -50.9677  -56.2789 H         1 UNK         0.3118 
    102 H102       28.2975  -48.4681  -53.8722 H         1 UNK         0.0546 
    103 H103       29.6002  -51.1646  -53.2252 H         1 UNK         0.0828 
    104 H104       28.4177  -50.3361  -52.2204 H         1 UNK         0.0828 
    105 H105       29.9980  -49.6192  -52.4787 H         1 UNK         0.0828 
    106 H106       30.6408  -49.6590  -54.9173 H         1 UNK         0.3005 
    107 H107       30.4245  -48.8237  -58.2537 H         1 UNK         0.1257 
    108 H108       31.4596  -46.5990  -56.4680 H         1 UNK         0.0775 
    109 H109       32.5989  -47.2868  -57.5904 H         1 UNK         0.0775 
    110 H110       33.1067  -45.3883  -58.9784 H         1 UNK         0.0840 
    111 H111       32.0011  -44.4843  -59.9771 H         1 UNK         0.0840 
    112 H112       32.7360  -49.3222  -56.6938 H         1 UNK         0.2987 
    113 H113       32.2162  -52.6666  -55.9436 H         1 UNK         0.0785 
    114 H114       32.7420  -53.0222  -58.3658 H         1 UNK         0.0798 
    115 H115       34.1670  -53.2445  -57.3666 H         1 UNK         0.0798 
    116 H116       33.9634  -51.7596  -58.2984 H         1 UNK         0.0798 
    117 H117       34.6345  -51.2272  -55.9336 H         1 UNK         0.3079 
    118 H118       35.2948  -50.6286  -53.5293 H         1 UNK         0.0794 
    119 H119       34.3501  -48.0089  -54.8662 H         1 UNK         0.0786 
    120 H120       35.5295  -49.1268  -55.5442 H         1 UNK         0.0786 
    121 H121       35.9125  -48.2343  -54.0876 H         1 UNK         0.0786 
    122 H122       32.9997  -49.1890  -52.4966 H         1 UNK         0.3032 
    123 H123       33.0447  -49.0720  -50.0693 H         1 UNK         0.1094 
    124 H124       34.1195  -47.9949  -48.1126 H         1 UNK         0.0794 
    125 H125       35.0768  -49.3632  -48.6534 H         1 UNK         0.0794 
    126 H126       35.6003  -47.7281  -49.0323 H         1 UNK         0.0794 
    127 H127       34.0156  -46.3192  -50.2262 H         1 UNK         0.3016 
@<TRIPOS>BOND
     1    1    2 1    
     2    1   67 1    
     3    1   68 1    
     4    1   69 1    
     5    2    3 2    
     6    2    4 am   BACKBONE|DICT|INTERRES
     7    4    5 1    
     8    4   70 1    
     9    5    6 1    
    10    5   65 1    
    11    5   71 1    
    12    6    7 1    
    13    6   72 1    
    14    6   73 1    
    15    7    8 1    
    16    8    9 1    
    17    8   74 1    
    18    8   75 1    
    19    9   10 ar   
    20    9   14 ar   
    21   10   11 ar   
    22   10   76 1    
    23   11   12 ar   
    24   11   48 1    
    25   12   13 ar   
    26   12   77 1    
    27   13   14 ar   
    28   13   15 1    
    29   14   78 1    
    30   15   16 1    
    31   15   79 1    
    32   15   80 1    
    33   16   17 1    
    34   17   18 1    
    35   17   81 1    
    36   17   82 1    
    37   18   19 1    
    38   18   22 1    
    39   18   83 1    
    40   19   20 am   BACKBONE|DICT|INTERRES
    41   19   21 2    
    42   20   84 1    
    43   20   85 1    
    44   22   23 am   BACKBONE|DICT|INTERRES
    45   22   86 1    
    46   23   24 2    
    47   23   25 1    
    48   25   26 1    
    49   25   27 1    
    50   25   87 1    
    51   26   88 1    
    52   26   89 1    
    53   26   90 1    
    54   27   28 am   BACKBONE|DICT|INTERRES
    55   27   91 1    
    56   28   29 2    
    57   28   30 1    
    58   30   31 1    
    59   30   32 1    
    60   30   92 1    
    61   31   93 1    
    62   31   94 1    
    63   31   95 1    
    64   32   33 am   BACKBONE|DICT|INTERRES
    65   32   96 1    
    66   33   34 2    
    67   33   35 1    
    68   35   36 1    
    69   35   37 1    
    70   35   97 1    
    71   36   98 1    
    72   36   99 1    
    73   36  100 1    
    74   37   38 am   BACKBONE|DICT|INTERRES
    75   37  101 1    
    76   38   39 2    
    77   38   40 1    
    78   40   41 1    
    79   40   42 1    
    80   40  102 1    
    81   41  103 1    
    82   41  104 1    
    83   41  105 1    
    84   42   43 am   BACKBONE|DICT|INTERRES
    85   42  106 1    
    86   43   44 2    
    87   43   45 1    
    88   45   46 1    
    89   45   49 1    
    90   45  107 1    
    91   46   47 1    
    92   46  108 1    
    93   46  109 1    
    94   47   48 1    
    95   48  110 1    
    96   48  111 1    
    97   49   50 am   BACKBONE|DICT|INTERRES
    98   49  112 1    
    99   50   51 2    
   100   50   52 1    
   101   52   53 1    
   102   52   54 1    
   103   52  113 1    
   104   53  114 1    
   105   53  115 1    
   106   53  116 1    
   107   54   55 am   BACKBONE|DICT|INTERRES
   108   54  117 1    
   109   55   56 2    
   110   55   57 1    
   111   57   58 1    
   112   57   59 1    
   113   57  118 1    
   114   58  119 1    
   115   58  120 1    
   116   58  121 1    
   117   59   60 am   BACKBONE|DICT|INTERRES
   118   59  122 1    
   119   60   61 2    
   120   60   62 1    
   121   62   63 1    
   122   62   64 1    
   123   62  123 1    
   124   63  124 1    
   125   63  125 1    
   126   63  126 1    
   127   64   65 am   BACKBONE|DICT|INTERRES
   128   64  127 1    
   129   65   66 2    
@<TRIPOS>SUBSTRUCTURE
     1 UNK         1 GROUP             0       ****    0 ROOT    
