@<TRIPOS>MOLECULE
3R134
127   129    1
SMALL
USER_CHARGES


@<TRIPOS>ATOM
      1 CA         36.6634  -46.3973  -51.6831 C.3       0 UNK        -0.1968 
      2 C          35.1801  -46.5901  -51.9562 C.2       0 UNK         0.4852 
      3 O          34.8143  -47.4022  -52.8034 O.2       0 UNK        -0.5359 
      4 N          34.3165  -45.8714  -51.2271 N.am      1 UNK        -0.4300 
      5 CA         32.8557  -45.8322  -51.4111 C.3       1 UNK         0.0863 
      6 C6         32.2092  -44.6307  -50.6713 C.3       11 UNK        -0.0953 
      7 S7         33.0814  -43.0455  -50.9373 S.3       11 UNK        -0.2369 
      8 C8         31.9725  -42.1573  -52.0856 C.3       11 UNK         0.0226 
      9 C9         32.0024  -42.6136  -53.5468 C.ar      11 UNK        -0.0699 
     10 C10        33.0311  -43.4017  -54.0833 C.ar      11 UNK        -0.0804 
     11 C11        33.0171  -43.7811  -55.4301 C.ar      11 UNK        -0.0871 
     12 C12        31.9688  -43.3549  -56.2503 C.ar      11 UNK        -0.1008 
     13 C13        30.9364  -42.5669  -55.7344 C.ar      11 UNK        -0.0735 
     14 C14        30.9673  -42.1925  -54.3879 C.ar      11 UNK        -0.0945 
     15 C15        29.7847  -42.1272  -56.6276 C.3       11 UNK         0.0169 
     16 S16        28.2233  -42.9167  -56.1279 S.3       11 UNK        -0.2669 
     17 C17        27.1325  -42.4509  -57.5092 C.3       11 UNK        -0.0850 
     18 CA         25.8482  -43.3191  -57.5542 C.3       10 UNK         0.0855 
     19 C          24.8184  -42.7062  -58.5433 C.2       10 UNK         0.5543 
     20 N          23.9544  -41.8199  -58.0683 N.am      10 UNK        -0.7343 
     21 O          24.8259  -42.9932  -59.7392 O.2       10 UNK        -0.5027 
     22 N          26.1438  -44.7289  -57.8656 N.am      10 UNK        -0.4495 
     23 C          25.2596  -45.7283  -57.7412 C.2       10 UNK         0.4903 
     24 O          24.1519  -45.5918  -57.2173 O.2       10 UNK        -0.4860 
     25 CA         25.6381  -47.1067  -58.3100 C.3       9 UNK         0.0227 
     26 CB         27.0990  -47.2418  -58.7795 C.3       9 UNK        -0.1964 
     27 N          25.3517  -48.1294  -57.3071 N.am      9 UNK        -0.4231 
     28 C          24.7549  -49.3062  -57.5390 C.2       9 UNK         0.5014 
     29 O          24.3794  -49.6725  -58.6550 O.2       9 UNK        -0.5270 
     30 CA         24.5224  -50.2220  -56.3161 C.3       8 UNK         0.0284 
     31 CB         24.3167  -51.7042  -56.6991 C.3       8 UNK        -0.1977 
     32 N          25.5553  -50.0778  -55.2814 N.am      8 UNK        -0.4342 
     33 C          26.8640  -50.3464  -55.3997 C.2       8 UNK         0.5039 
     34 O          27.3876  -50.8673  -56.3859 O.2       8 UNK        -0.5547 
     35 CA         27.7470  -49.8988  -54.2234 C.3       7 UNK         0.0281 
     36 CB         28.6410  -51.0425  -53.7163 C.3       7 UNK        -0.1963 
     37 N          28.5745  -48.7512  -54.6038 N.am      7 UNK        -0.4444 
     38 C          28.0893  -47.5417  -54.9251 C.2       7 UNK         0.5104 
     39 O          26.8870  -47.2693  -54.9163 O.2       7 UNK        -0.5100 
     40 CA         29.0867  -46.4507  -55.3316 C.3       6 UNK         0.0396 
     41 CB         29.6610  -45.7616  -54.0893 C.3       6 UNK        -0.1801 
     42 N          30.1862  -46.9736  -56.1391 N.am      6 UNK        -0.4747 
     43 C          30.5500  -46.5105  -57.3452 C.2       6 UNK         0.5012 
     44 O          29.9924  -45.5790  -57.9270 O.2       6 UNK        -0.5003 
     45 CA         31.7257  -47.2260  -58.0469 C.3       5 UNK         0.0782 
     46 C46        33.0588  -46.4519  -57.8876 C.3       11 UNK        -0.0868 
     47 S47        33.7014  -46.3820  -56.1743 S.3       11 UNK        -0.2515 
     48 C48        34.1526  -44.6239  -55.9988 C.3       11 UNK         0.0199 
     49 N          31.8519  -48.6261  -57.6341 N.am      5 UNK        -0.4607 
     50 C          30.9470  -49.5799  -57.8922 C.2       4 UNK         0.5031 
     51 O          30.0061  -49.4198  -58.6692 O.2       4 UNK        -0.5119 
     52 CA         31.0915  -50.9302  -57.1606 C.3       4 UNK         0.0263 
     53 CB         31.3767  -52.0591  -58.1656 C.3       4 UNK        -0.1967 
     54 N          32.1058  -50.9799  -56.0977 N.am      4 UNK        -0.4237 
     55 C          32.1473  -50.2321  -54.9856 C.2       3 UNK         0.4908 
     56 O          31.3408  -49.3325  -54.7311 O.2       3 UNK        -0.5102 
     57 CA         33.3313  -50.5187  -54.0480 C.3       3 UNK         0.0241 
     58 CB         34.6521  -50.0518  -54.6848 C.3       3 UNK        -0.1971 
     59 N          33.1774  -49.8687  -52.7460 N.am      3 UNK        -0.4139 
     60 C          32.4238  -50.3439  -51.7423 C.2       2 UNK         0.5016 
     61 O          31.7917  -51.3992  -51.8091 O.2       2 UNK        -0.5319 
     62 CA         32.3851  -49.5418  -50.4253 C.3       2 UNK         0.0286 
     63 CB         33.2295  -50.2400  -49.3462 C.3       2 UNK        -0.1963 
     64 N          32.8662  -48.1685  -50.5839 N.am      2 UNK        -0.4790 
     65 C          32.1301  -47.1560  -51.0609 C.2       1 UNK         0.5024 
     66 O          30.9148  -47.2425  -51.2320 O.2       1 UNK        -0.4888 
     67 H67        37.1680  -46.0615  -52.5886 H         1 UNK         0.0892 
     68 H68        37.1132  -47.3396  -51.3718 H         1 UNK         0.0892 
     69 H69        36.8422  -45.6594  -50.9012 H         1 UNK         0.0892 
     70 H70        34.6727  -45.2274  -50.5346 H         1 UNK         0.3107 
     71 H71        32.6809  -45.6888  -52.4791 H         1 UNK         0.0773 
     72 H72        31.1655  -44.5183  -50.9711 H         1 UNK         0.0680 
     73 H73        32.1951  -44.8148  -49.5954 H         1 UNK         0.0680 
     74 H74        32.2458  -41.1017  -52.0606 H         1 UNK         0.0650 
     75 H75        30.9533  -42.2171  -51.7007 H         1 UNK         0.0650 
     76 H76        33.8535  -43.7221  -53.4603 H         1 UNK         0.1397 
     77 H77        31.9489  -43.6422  -57.2916 H         1 UNK         0.1363 
     78 H78        30.1683  -41.5804  -53.9916 H         1 UNK         0.1355 
     79 H79        29.9953  -42.3770  -57.6687 H         1 UNK         0.0707 
     80 H80        29.6762  -41.0428  -56.5799 H         1 UNK         0.0707 
     81 H81        27.6780  -42.5290  -58.4516 H         1 UNK         0.1034 
     82 H82        26.8834  -41.3948  -57.3858 H         1 UNK         0.1034 
     83 H83        25.3976  -43.2984  -56.5594 H         1 UNK         0.0482 
     84 H84        23.2884  -41.3985  -58.6971 H         1 UNK         0.3460 
     85 H85        23.9461  -41.5715  -57.0911 H         1 UNK         0.3460 
     86 H86        27.0401  -44.9131  -58.2917 H         1 UNK         0.2989 
     87 H87        24.9928  -47.2519  -59.1786 H         1 UNK         0.0559 
     88 H88        27.2837  -48.2289  -59.2044 H         1 UNK         0.0848 
     89 H89        27.7932  -47.1138  -57.9520 H         1 UNK         0.0848 
     90 H90        27.3491  -46.5128  -59.5509 H         1 UNK         0.0848 
     91 H91        25.6241  -47.8914  -56.3571 H         1 UNK         0.3144 
     92 H92        23.5936  -49.8740  -55.8617 H         1 UNK         0.0727 
     93 H93        24.1481  -52.3227  -55.8177 H         1 UNK         0.0790 
     94 H94        25.1769  -52.1081  -57.2338 H         1 UNK         0.0790 
     95 H95        23.4479  -51.8234  -57.3477 H         1 UNK         0.0790 
     96 H96        25.2483  -49.6218  -54.4323 H         1 UNK         0.3215 
     97 H97        27.1084  -49.5872  -53.3940 H         1 UNK         0.0863 
     98 H98        29.2510  -50.7238  -52.8708 H         1 UNK         0.0808 
     99 H99        29.3133  -51.4098  -54.4910 H         1 UNK         0.0808 
    100 H100       28.0387  -51.8882  -53.3826 H         1 UNK         0.0808 
    101 H101       29.5790  -48.9130  -54.6335 H         1 UNK         0.3118 
    102 H102       28.5204  -45.7160  -55.9034 H         1 UNK         0.0546 
    103 H103       30.2728  -46.4495  -53.5108 H         1 UNK         0.0828 
    104 H104       28.8708  -45.3830  -53.4400 H         1 UNK         0.0828 
    105 H105       30.2900  -44.9191  -54.3654 H         1 UNK         0.0828 
    106 H106       30.7100  -47.7491  -55.7450 H         1 UNK         0.3005 
    107 H107       31.4796  -47.2303  -59.1115 H         1 UNK         0.1257 
    108 H108       33.8248  -46.9240  -58.5046 H         1 UNK         0.0775 
    109 H109       32.9521  -45.4441  -58.2900 H         1 UNK         0.0775 
    110 H110       35.0225  -44.5642  -55.3428 H         1 UNK         0.0840 
    111 H111       34.4791  -44.2184  -56.9574 H         1 UNK         0.0840 
    112 H112       32.5954  -48.8279  -56.9822 H         1 UNK         0.2987 
    113 H113       30.1246  -51.1290  -56.6957 H         1 UNK         0.0785 
    114 H114       32.3428  -51.9288  -58.6548 H         1 UNK         0.0798 
    115 H115       30.6168  -52.0889  -58.9480 H         1 UNK         0.0798 
    116 H116       31.3720  -53.0352  -57.6801 H         1 UNK         0.0798 
    117 H117       32.8301  -51.6725  -56.2240 H         1 UNK         0.3079 
    118 H118       33.3869  -51.5982  -53.8913 H         1 UNK         0.0794 
    119 H119       34.6267  -48.9901  -54.9317 H         1 UNK         0.0786 
    120 H120       34.8674  -50.5945  -55.6057 H         1 UNK         0.0786 
    121 H121       35.4950  -50.2144  -54.0128 H         1 UNK         0.0786 
    122 H122       33.6435  -48.9716  -52.6399 H         1 UNK         0.3032 
    123 H123       31.3461  -49.5224  -50.0878 H         1 UNK         0.1094 
    124 H124       33.1670  -49.7157  -48.3925 H         1 UNK         0.0794 
    125 H125       32.8803  -51.2596  -49.1767 H         1 UNK         0.0794 
    126 H126       34.2809  -50.2989  -49.6303 H         1 UNK         0.0794 
    127 H127       33.8573  -48.0146  -50.4665 H         1 UNK         0.3016 
@<TRIPOS>BOND
     1    1    2 1    
     2    1   67 1    
     3    1   68 1    
     4    1   69 1    
     5    2    3 2    
     6    2    4 am   BACKBONE|DICT|INTERRES
     7    4    5 1    
     8    4   70 1    
     9    5    6 1    
    10    5   65 1    
    11    5   71 1    
    12    6    7 1    
    13    6   72 1    
    14    6   73 1    
    15    7    8 1    
    16    8    9 1    
    17    8   74 1    
    18    8   75 1    
    19    9   10 ar   
    20    9   14 ar   
    21   10   11 ar   
    22   10   76 1    
    23   11   12 ar   
    24   11   48 1    
    25   12   13 ar   
    26   12   77 1    
    27   13   14 ar   
    28   13   15 1    
    29   14   78 1    
    30   15   16 1    
    31   15   79 1    
    32   15   80 1    
    33   16   17 1    
    34   17   18 1    
    35   17   81 1    
    36   17   82 1    
    37   18   19 1    
    38   18   22 1    
    39   18   83 1    
    40   19   20 am   BACKBONE|DICT|INTERRES
    41   19   21 2    
    42   20   84 1    
    43   20   85 1    
    44   22   23 am   BACKBONE|DICT|INTERRES
    45   22   86 1    
    46   23   24 2    
    47   23   25 1    
    48   25   26 1    
    49   25   27 1    
    50   25   87 1    
    51   26   88 1    
    52   26   89 1    
    53   26   90 1    
    54   27   28 am   BACKBONE|DICT|INTERRES
    55   27   91 1    
    56   28   29 2    
    57   28   30 1    
    58   30   31 1    
    59   30   32 1    
    60   30   92 1    
    61   31   93 1    
    62   31   94 1    
    63   31   95 1    
    64   32   33 am   BACKBONE|DICT|INTERRES
    65   32   96 1    
    66   33   34 2    
    67   33   35 1    
    68   35   36 1    
    69   35   37 1    
    70   35   97 1    
    71   36   98 1    
    72   36   99 1    
    73   36  100 1    
    74   37   38 am   BACKBONE|DICT|INTERRES
    75   37  101 1    
    76   38   39 2    
    77   38   40 1    
    78   40   41 1    
    79   40   42 1    
    80   40  102 1    
    81   41  103 1    
    82   41  104 1    
    83   41  105 1    
    84   42   43 am   BACKBONE|DICT|INTERRES
    85   42  106 1    
    86   43   44 2    
    87   43   45 1    
    88   45   46 1    
    89   45   49 1    
    90   45  107 1    
    91   46   47 1    
    92   46  108 1    
    93   46  109 1    
    94   47   48 1    
    95   48  110 1    
    96   48  111 1    
    97   49   50 am   BACKBONE|DICT|INTERRES
    98   49  112 1    
    99   50   51 2    
   100   50   52 1    
   101   52   53 1    
   102   52   54 1    
   103   52  113 1    
   104   53  114 1    
   105   53  115 1    
   106   53  116 1    
   107   54   55 am   BACKBONE|DICT|INTERRES
   108   54  117 1    
   109   55   56 2    
   110   55   57 1    
   111   57   58 1    
   112   57   59 1    
   113   57  118 1    
   114   58  119 1    
   115   58  120 1    
   116   58  121 1    
   117   59   60 am   BACKBONE|DICT|INTERRES
   118   59  122 1    
   119   60   61 2    
   120   60   62 1    
   121   62   63 1    
   122   62   64 1    
   123   62  123 1    
   124   63  124 1    
   125   63  125 1    
   126   63  126 1    
   127   64   65 am   BACKBONE|DICT|INTERRES
   128   64  127 1    
   129   65   66 2    
@<TRIPOS>SUBSTRUCTURE
     1 UNK         1 GROUP             0       ****    0 ROOT    
