@<TRIPOS>MOLECULE
3R134
127   129    1
SMALL
USER_CHARGES


@<TRIPOS>ATOM
      1 CA         31.8984  -51.5110  -57.0014 C.3       0 UNK        -0.1968 
      2 C          32.3466  -50.3957  -56.0702 C.2       0 UNK         0.4852 
      3 O          32.5704  -50.6459  -54.8861 O.2       0 UNK        -0.5359 
      4 N          32.4974  -49.1734  -56.6002 N.am      1 UNK        -0.4300 
      5 CA         32.8387  -47.9431  -55.8673 C.3       1 UNK         0.0863 
      6 C6         32.8591  -46.7136  -56.8043 C.3       11 UNK        -0.0953 
      7 S7         31.2295  -46.4128  -57.5663 S.3       11 UNK        -0.2369 
      8 C8         31.0732  -44.6049  -57.4387 C.3       11 UNK         0.0226 
      9 C9         30.6523  -44.1453  -56.0492 C.ar      11 UNK        -0.0699 
     10 C10        31.6077  -43.7274  -55.1176 C.ar      11 UNK        -0.0804 
     11 C11        31.2129  -43.2512  -53.8651 C.ar      11 UNK        -0.0871 
     12 C12        29.8508  -43.1652  -53.5636 C.ar      11 UNK        -0.1008 
     13 C13        28.8809  -43.6038  -54.4682 C.ar      11 UNK        -0.0735 
     14 C14        29.2957  -44.0986  -55.7118 C.ar      11 UNK        -0.0945 
     15 C15        27.4161  -43.5224  -54.0313 C.3       11 UNK         0.0169 
     16 S16        26.1957  -44.3301  -55.1231 S.3       11 UNK        -0.2669 
     17 C17        25.5794  -42.9366  -56.1368 C.3       11 UNK        -0.0850 
     18 CA         25.7093  -43.1191  -57.6757 C.3       10 UNK         0.0855 
     19 C          27.1152  -42.7768  -58.2464 C.2       10 UNK         0.5543 
     20 N          27.6272  -43.5041  -59.2328 N.am      10 UNK        -0.7343 
     21 O          27.7366  -41.8061  -57.8221 O.2       10 UNK        -0.5027 
     22 N          25.1987  -44.4228  -58.1269 N.am      10 UNK        -0.4495 
     23 C          24.1272  -44.6099  -58.9080 C.2       10 UNK         0.4903 
     24 O          23.3774  -43.6993  -59.2653 O.2       10 UNK        -0.4860 
     25 CA         23.8355  -46.0548  -59.3741 C.3       9 UNK         0.0227 
     26 CB         23.0617  -46.0976  -60.7093 C.3       9 UNK        -0.1964 
     27 N          25.0231  -46.9175  -59.4456 N.am      9 UNK        -0.4231 
     28 C          26.1465  -46.7038  -60.1493 C.2       9 UNK         0.5014 
     29 O          26.3200  -45.7279  -60.8820 O.2       9 UNK        -0.5270 
     30 CA         27.2809  -47.7349  -59.9672 C.3       8 UNK         0.0284 
     31 CB         28.6661  -47.1427  -60.3054 C.3       8 UNK        -0.1977 
     32 N          27.3164  -48.3676  -58.6382 N.am      8 UNK        -0.4342 
     33 C          27.4067  -47.7461  -57.4526 C.2       8 UNK         0.5039 
     34 O          27.3703  -46.5224  -57.3123 O.2       8 UNK        -0.5547 
     35 CA         27.5459  -48.6530  -56.2243 C.3       7 UNK         0.0281 
     36 CB         28.8978  -49.3915  -56.2264 C.3       7 UNK        -0.1963 
     37 N          27.4390  -47.8532  -55.0071 N.am      7 UNK        -0.4444 
     38 C          27.0695  -48.3242  -53.8118 C.2       7 UNK         0.5104 
     39 O          26.7114  -49.4877  -53.6177 O.2       7 UNK        -0.5100 
     40 CA         27.2014  -47.3542  -52.6299 C.3       6 UNK         0.0396 
     41 CB         26.5818  -47.9115  -51.3298 C.3       6 UNK        -0.1801 
     42 N          28.6258  -47.0844  -52.4560 N.am      6 UNK        -0.4747 
     43 C          29.1887  -46.1438  -51.6910 C.2       6 UNK         0.5012 
     44 O          28.5491  -45.3838  -50.9620 O.2       6 UNK        -0.5003 
     45 CA         30.7320  -46.0616  -51.7525 C.3       5 UNK         0.0782 
     46 C46        31.3180  -44.8108  -51.0377 C.3       11 UNK        -0.0868 
     47 S47        32.8526  -44.2524  -51.8515 S.3       11 UNK        -0.2515 
     48 C48        32.2538  -42.8337  -52.8336 C.3       11 UNK         0.0199 
     49 N          31.3401  -47.2919  -51.2335 N.am      5 UNK        -0.4607 
     50 C          31.4195  -48.4578  -51.8831 C.2       4 UNK         0.5031 
     51 O          30.9858  -48.6385  -53.0212 O.2       4 UNK        -0.5119 
     52 CA         32.0170  -49.6310  -51.1046 C.3       4 UNK         0.0263 
     53 CB         30.9022  -50.5520  -50.5753 C.3       4 UNK        -0.1967 
     54 N          32.9264  -50.3821  -51.9660 N.am      4 UNK        -0.4237 
     55 C          33.9510  -51.1203  -51.5172 C.2       3 UNK         0.4908 
     56 O          34.2175  -51.2670  -50.3234 O.2       3 UNK        -0.5102 
     57 CA         34.8442  -51.7997  -52.5640 C.3       3 UNK         0.0241 
     58 CB         34.1772  -53.0716  -53.1152 C.3       3 UNK        -0.1971 
     59 N          35.1591  -50.8844  -53.6603 N.am      3 UNK        -0.4139 
     60 C          36.2287  -50.0760  -53.6900 C.2       2 UNK         0.5016 
     61 O          37.0943  -50.0557  -52.8137 O.2       2 UNK        -0.5319 
     62 CA         36.3799  -49.1356  -54.9011 C.3       2 UNK         0.0286 
     63 CB         37.3582  -49.7335  -55.9254 C.3       2 UNK        -0.1963 
     64 N          35.1118  -48.8388  -55.5704 N.am      2 UNK        -0.4790 
     65 C          34.1602  -48.0346  -55.0741 C.2       1 UNK         0.5024 
     66 O          34.2876  -47.3965  -54.0292 O.2       1 UNK        -0.4888 
     67 H67        32.6601  -52.2886  -57.0482 H         1 UNK         0.0892 
     68 H68        30.9773  -51.9584  -56.6291 H         1 UNK         0.0892 
     69 H69        31.7155  -51.1503  -58.0134 H         1 UNK         0.0892 
     70 H70        32.2976  -49.0365  -57.5808 H         1 UNK         0.3107 
     71 H71        32.0481  -47.7824  -55.1344 H         1 UNK         0.0773 
     72 H72        33.1656  -45.8239  -56.2543 H         1 UNK         0.0680 
     73 H73        33.5938  -46.8450  -57.6007 H         1 UNK         0.0680 
     74 H74        30.3301  -44.2748  -58.1658 H         1 UNK         0.0650 
     75 H75        32.0120  -44.1334  -57.7333 H         1 UNK         0.0650 
     76 H76        32.6591  -43.7664  -55.3653 H         1 UNK         0.1397 
     77 H77        29.5379  -42.7769  -52.6041 H         1 UNK         0.1363 
     78 H78        28.5718  -44.4380  -56.4370 H         1 UNK         0.1355 
     79 H79        27.3278  -43.9956  -53.0527 H         1 UNK         0.0707 
     80 H80        27.1448  -42.4774  -53.8781 H         1 UNK         0.0707 
     81 H81        24.5229  -42.8188  -55.8926 H         1 UNK         0.1034 
     82 H82        26.0438  -42.0011  -55.8217 H         1 UNK         0.1034 
     83 H83        25.0871  -42.3361  -58.1120 H         1 UNK         0.0482 
     84 H84        27.1053  -44.2713  -59.6394 H         1 UNK         0.3460 
     85 H85        28.5265  -43.2540  -59.6090 H         1 UNK         0.3460 
     86 H86        25.7866  -45.2138  -57.8808 H         1 UNK         0.2989 
     87 H87        23.1931  -46.4900  -58.6074 H         1 UNK         0.0559 
     88 H88        22.1059  -45.5784  -60.6282 H         1 UNK         0.0848 
     89 H89        22.8448  -47.1222  -61.0108 H         1 UNK         0.0848 
     90 H90        23.6222  -45.6223  -61.5151 H         1 UNK         0.0848 
     91 H91        25.0021  -47.7362  -58.8540 H         1 UNK         0.3144 
     92 H92        27.0786  -48.5328  -60.6831 H         1 UNK         0.0727 
     93 H93        28.9054  -46.2934  -59.6640 H         1 UNK         0.0790 
     94 H94        28.7058  -46.7930  -61.3377 H         1 UNK         0.0790 
     95 H95        29.4565  -47.8834  -60.1849 H         1 UNK         0.0790 
     96 H96        27.3210  -49.3787  -58.6436 H         1 UNK         0.3215 
     97 H97        26.7301  -49.3787  -56.2529 H         1 UNK         0.0863 
     98 H98        28.9859  -50.0682  -55.3761 H         1 UNK         0.0808 
     99 H99        29.7274  -48.6866  -56.1714 H         1 UNK         0.0808 
    100 H100       29.0322  -49.9893  -57.1280 H         1 UNK         0.0808 
    101 H101       27.6461  -46.8685  -55.1346 H         1 UNK         0.3118 
    102 H102       26.6912  -46.4270  -52.8953 H         1 UNK         0.0546 
    103 H103       27.1054  -48.8042  -50.9855 H         1 UNK         0.0828 
    104 H104       25.5365  -48.1827  -51.4821 H         1 UNK         0.0828 
    105 H105       26.6059  -47.1783  -50.5241 H         1 UNK         0.0828 
    106 H106       29.2515  -47.6951  -52.9782 H         1 UNK         0.3005 
    107 H107       30.9696  -45.9861  -52.8174 H         1 UNK         0.1257 
    108 H108       30.6237  -43.9715  -51.0164 H         1 UNK         0.0775 
    109 H109       31.5301  -45.0230  -49.9887 H         1 UNK         0.0775 
    110 H110       31.8459  -42.0747  -52.1640 H         1 UNK         0.0840 
    111 H111       33.1036  -42.3677  -53.3347 H         1 UNK         0.0840 
    112 H112       31.6881  -47.2405  -50.2873 H         1 UNK         0.2987 
    113 H113       32.5799  -49.2311  -50.2580 H         1 UNK         0.0785 
    114 H114       30.2014  -49.9990  -49.9486 H         1 UNK         0.0798 
    115 H115       31.3079  -51.3626  -49.9699 H         1 UNK         0.0798 
    116 H116       30.3305  -50.9967  -51.3912 H         1 UNK         0.0798 
    117 H117       32.7465  -50.3117  -52.9671 H         1 UNK         0.3079 
    118 H118       35.7689  -52.1033  -52.0680 H         1 UNK         0.0794 
    119 H119       34.8200  -53.5731  -53.8387 H         1 UNK         0.0786 
    120 H120       33.2263  -52.8584  -53.6039 H         1 UNK         0.0786 
    121 H121       33.9764  -53.7824  -52.3125 H         1 UNK         0.0786 
    122 H122       34.4451  -50.7849  -54.3755 H         1 UNK         0.3032 
    123 H123       36.8015  -48.1978  -54.5314 H         1 UNK         0.1094 
    124 H124       36.9878  -50.6725  -56.3388 H         1 UNK         0.0794 
    125 H125       37.5353  -49.0469  -56.7535 H         1 UNK         0.0794 
    126 H126       38.3261  -49.9396  -55.4658 H         1 UNK         0.0794 
    127 H127       34.9253  -49.3218  -56.4377 H         1 UNK         0.3016 
@<TRIPOS>BOND
     1    1    2 1    
     2    1   67 1    
     3    1   68 1    
     4    1   69 1    
     5    2    3 2    
     6    2    4 am   BACKBONE|DICT|INTERRES
     7    4    5 1    
     8    4   70 1    
     9    5    6 1    
    10    5   65 1    
    11    5   71 1    
    12    6    7 1    
    13    6   72 1    
    14    6   73 1    
    15    7    8 1    
    16    8    9 1    
    17    8   74 1    
    18    8   75 1    
    19    9   10 ar   
    20    9   14 ar   
    21   10   11 ar   
    22   10   76 1    
    23   11   12 ar   
    24   11   48 1    
    25   12   13 ar   
    26   12   77 1    
    27   13   14 ar   
    28   13   15 1    
    29   14   78 1    
    30   15   16 1    
    31   15   79 1    
    32   15   80 1    
    33   16   17 1    
    34   17   18 1    
    35   17   81 1    
    36   17   82 1    
    37   18   19 1    
    38   18   22 1    
    39   18   83 1    
    40   19   20 am   BACKBONE|DICT|INTERRES
    41   19   21 2    
    42   20   84 1    
    43   20   85 1    
    44   22   23 am   BACKBONE|DICT|INTERRES
    45   22   86 1    
    46   23   24 2    
    47   23   25 1    
    48   25   26 1    
    49   25   27 1    
    50   25   87 1    
    51   26   88 1    
    52   26   89 1    
    53   26   90 1    
    54   27   28 am   BACKBONE|DICT|INTERRES
    55   27   91 1    
    56   28   29 2    
    57   28   30 1    
    58   30   31 1    
    59   30   32 1    
    60   30   92 1    
    61   31   93 1    
    62   31   94 1    
    63   31   95 1    
    64   32   33 am   BACKBONE|DICT|INTERRES
    65   32   96 1    
    66   33   34 2    
    67   33   35 1    
    68   35   36 1    
    69   35   37 1    
    70   35   97 1    
    71   36   98 1    
    72   36   99 1    
    73   36  100 1    
    74   37   38 am   BACKBONE|DICT|INTERRES
    75   37  101 1    
    76   38   39 2    
    77   38   40 1    
    78   40   41 1    
    79   40   42 1    
    80   40  102 1    
    81   41  103 1    
    82   41  104 1    
    83   41  105 1    
    84   42   43 am   BACKBONE|DICT|INTERRES
    85   42  106 1    
    86   43   44 2    
    87   43   45 1    
    88   45   46 1    
    89   45   49 1    
    90   45  107 1    
    91   46   47 1    
    92   46  108 1    
    93   46  109 1    
    94   47   48 1    
    95   48  110 1    
    96   48  111 1    
    97   49   50 am   BACKBONE|DICT|INTERRES
    98   49  112 1    
    99   50   51 2    
   100   50   52 1    
   101   52   53 1    
   102   52   54 1    
   103   52  113 1    
   104   53  114 1    
   105   53  115 1    
   106   53  116 1    
   107   54   55 am   BACKBONE|DICT|INTERRES
   108   54  117 1    
   109   55   56 2    
   110   55   57 1    
   111   57   58 1    
   112   57   59 1    
   113   57  118 1    
   114   58  119 1    
   115   58  120 1    
   116   58  121 1    
   117   59   60 am   BACKBONE|DICT|INTERRES
   118   59  122 1    
   119   60   61 2    
   120   60   62 1    
   121   62   63 1    
   122   62   64 1    
   123   62  123 1    
   124   63  124 1    
   125   63  125 1    
   126   63  126 1    
   127   64   65 am   BACKBONE|DICT|INTERRES
   128   64  127 1    
   129   65   66 2    
@<TRIPOS>SUBSTRUCTURE
     1 UNK         1 GROUP             0       ****    0 ROOT    
