@<TRIPOS>MOLECULE
3R134
127   129    1
SMALL
USER_CHARGES


@<TRIPOS>ATOM
      1 CA         38.4368  -43.5269  -53.1585 C.3       0 UNK        -0.1968 
      2 C          37.4927  -43.9632  -54.2691 C.2       0 UNK         0.4852 
      3 O          37.9006  -44.0206  -55.4300 O.2       0 UNK        -0.5359 
      4 N          36.2350  -44.2686  -53.9219 N.am      1 UNK        -0.4300 
      5 CA         35.1930  -44.7334  -54.8467 C.3       1 UNK         0.0863 
      6 C6         33.7751  -44.5689  -54.2431 C.3       11 UNK        -0.0953 
      7 S7         33.5504  -45.4214  -52.6412 S.3       11 UNK        -0.2369 
      8 C8         32.0098  -46.3424  -52.9216 C.3       11 UNK         0.0226 
      9 C9         30.7823  -45.4592  -52.7618 C.ar      11 UNK        -0.0699 
     10 C10        30.1923  -45.3072  -51.5043 C.ar      11 UNK        -0.0804 
     11 C11        29.0216  -44.5570  -51.3536 C.ar      11 UNK        -0.0871 
     12 C12        28.4737  -43.9076  -52.4636 C.ar      11 UNK        -0.1008 
     13 C13        29.0530  -44.0559  -53.7276 C.ar      11 UNK        -0.0735 
     14 C14        30.2058  -44.8338  -53.8707 C.ar      11 UNK        -0.0945 
     15 C15        28.4140  -43.4014  -54.9418 C.3       11 UNK         0.0169 
     16 S16        26.7924  -44.1429  -55.3024 S.3       11 UNK        -0.2669 
     17 C17        26.4374  -43.4391  -56.9490 C.3       11 UNK        -0.0850 
     18 CA         26.2902  -44.5360  -58.0429 C.3       10 UNK         0.0855 
     19 C          25.8352  -43.9642  -59.4215 C.2       10 UNK         0.5543 
     20 N          26.2241  -44.5565  -60.5457 N.am      10 UNK        -0.7343 
     21 O          25.0914  -42.9878  -59.4768 O.2       10 UNK        -0.5027 
     22 N          27.4435  -45.4493  -58.1183 N.am      10 UNK        -0.4495 
     23 C          28.6940  -45.1265  -58.4757 C.2       10 UNK         0.4903 
     24 O          29.0798  -43.9761  -58.6835 O.2       10 UNK        -0.4860 
     25 CA         29.6848  -46.2914  -58.6622 C.3       9 UNK         0.0227 
     26 CB         30.6043  -46.4156  -57.4372 C.3       9 UNK        -0.1964 
     27 N          29.0531  -47.5910  -58.9219 N.am      9 UNK        -0.4231 
     28 C          28.2552  -47.8983  -59.9532 C.2       9 UNK         0.5014 
     29 O          27.9438  -47.0963  -60.8353 O.2       9 UNK        -0.5270 
     30 CA         27.6612  -49.3195  -59.9906 C.3       8 UNK         0.0284 
     31 CB         28.6396  -50.3105  -60.6510 C.3       8 UNK        -0.1977 
     32 N          27.1739  -49.8197  -58.6932 N.am      8 UNK        -0.4342 
     33 C          27.8735  -50.1230  -57.5907 C.2       8 UNK         0.5039 
     34 O          29.0934  -49.9802  -57.4890 O.2       8 UNK        -0.5547 
     35 CA         27.0543  -50.5864  -56.3790 C.3       7 UNK         0.0281 
     36 CB         27.8818  -51.4445  -55.4059 C.3       7 UNK        -0.1963 
     37 N          26.5350  -49.4101  -55.6797 N.am      7 UNK        -0.4444 
     38 C          25.3704  -48.8139  -55.9750 C.2       7 UNK         0.5104 
     39 O          24.6174  -49.2276  -56.8585 O.2       7 UNK        -0.5100 
     40 CA         24.9824  -47.5264  -55.2166 C.3       6 UNK         0.0396 
     41 CB         23.5028  -47.5308  -54.7795 C.3       6 UNK        -0.1801 
     42 N          25.8694  -47.1697  -54.1027 N.am      6 UNK        -0.4747 
     43 C          26.0313  -47.8127  -52.9369 C.2       6 UNK         0.5012 
     44 O          25.3987  -48.8149  -52.5988 O.2       6 UNK        -0.5003 
     45 CA         27.1320  -47.2622  -52.0092 C.3       5 UNK         0.0782 
     46 C46        26.5399  -46.6527  -50.7089 C.3       11 UNK        -0.0868 
     47 S47        27.7904  -46.1715  -49.4613 S.3       11 UNK        -0.2515 
     48 C48        28.3115  -44.5088  -50.0084 C.3       11 UNK         0.0199 
     49 N          28.1681  -48.2691  -51.7628 N.am      5 UNK        -0.4607 
     50 C          28.9484  -48.7897  -52.7163 C.2       4 UNK         0.5031 
     51 O          28.8235  -48.5369  -53.9191 O.2       4 UNK        -0.5119 
     52 CA         30.0587  -49.7392  -52.2508 C.3       4 UNK         0.0263 
     53 CB         29.4942  -51.1036  -51.8186 C.3       4 UNK        -0.1967 
     54 N          30.9857  -49.9223  -53.3628 N.am      4 UNK        -0.4237 
     55 C          32.3187  -49.9370  -53.2856 C.2       3 UNK         0.4908 
     56 O          32.9438  -49.8987  -52.2236 O.2       3 UNK        -0.5102 
     57 CA         33.0892  -49.9745  -54.6151 C.3       3 UNK         0.0241 
     58 CB         32.2683  -49.4851  -55.8304 C.3       3 UNK        -0.1971 
     59 N          34.3062  -49.1773  -54.4759 N.am      3 UNK        -0.4139 
     60 C          35.4244  -49.3349  -55.1927 C.2       2 UNK         0.5016 
     61 O          35.5602  -50.1961  -56.0647 O.2       2 UNK        -0.5319 
     62 CA         36.5835  -48.3654  -54.8770 C.3       2 UNK         0.0286 
     63 CB         37.6675  -48.3528  -55.9763 C.3       2 UNK        -0.1963 
     64 N          36.1474  -46.9923  -54.5787 N.am      2 UNK        -0.4790 
     65 C          35.4401  -46.1669  -55.3709 C.2       1 UNK         0.5024 
     66 O          34.9988  -46.4819  -56.4766 O.2       1 UNK        -0.4888 
     67 H67        37.9458  -43.5171  -52.1855 H         1 UNK         0.0892 
     68 H68        39.2879  -44.2049  -53.1018 H         1 UNK         0.0892 
     69 H69        38.8126  -42.5238  -53.3582 H         1 UNK         0.0892 
     70 H70        35.9503  -44.1967  -52.9547 H         1 UNK         0.3107 
     71 H71        35.2378  -44.0848  -55.7246 H         1 UNK         0.0773 
     72 H72        33.0243  -44.9060  -54.9592 H         1 UNK         0.0680 
     73 H73        33.5677  -43.5098  -54.0830 H         1 UNK         0.0680 
     74 H74        31.9636  -47.1577  -52.1991 H         1 UNK         0.0650 
     75 H75        32.0243  -46.8091  -53.9070 H         1 UNK         0.0650 
     76 H76        30.6179  -45.8119  -50.6476 H         1 UNK         0.1397 
     77 H77        27.5672  -43.3265  -52.3591 H         1 UNK         0.1363 
     78 H78        30.6485  -44.9617  -54.8473 H         1 UNK         0.1355 
     79 H79        28.2938  -42.3321  -54.7622 H         1 UNK         0.0707 
     80 H80        29.0610  -43.5023  -55.8147 H         1 UNK         0.0707 
     81 H81        25.5134  -42.8646  -56.8625 H         1 UNK         0.1034 
     82 H82        27.2080  -42.7191  -57.2285 H         1 UNK         0.1034 
     83 H83        25.4558  -45.1679  -57.7389 H         1 UNK         0.0482 
     84 H84        26.8303  -45.3687  -60.5274 H         1 UNK         0.3460 
     85 H85        25.9143  -44.1841  -61.4291 H         1 UNK         0.3460 
     86 H86        27.2368  -46.4262  -57.9805 H         1 UNK         0.2989 
     87 H87        30.3022  -46.0512  -59.5299 H         1 UNK         0.0559 
     88 H88        31.0887  -45.4644  -57.2123 H         1 UNK         0.0848 
     89 H89        31.3967  -47.1424  -57.6150 H         1 UNK         0.0848 
     90 H90        30.0528  -46.7256  -56.5481 H         1 UNK         0.0848 
     91 H91        29.2472  -48.3460  -58.2635 H         1 UNK         0.3144 
     92 H92        26.7778  -49.2654  -60.6291 H         1 UNK         0.0727 
     93 H93        28.1942  -51.3003  -60.7505 H         1 UNK         0.0790 
     94 H94        29.5642  -50.4148  -60.0823 H         1 UNK         0.0790 
     95 H95        28.9133  -49.9763  -61.6526 H         1 UNK         0.0790 
     96 H96        26.1665  -49.9004  -58.6228 H         1 UNK         0.3215 
     97 H97        26.2281  -51.2062  -56.7349 H         1 UNK         0.0863 
     98 H98        27.2904  -51.7422  -54.5400 H         1 UNK         0.0808 
     99 H99        28.7650  -50.9192  -55.0465 H         1 UNK         0.0808 
    100 H100       28.2275  -52.3565  -55.8939 H         1 UNK         0.0808 
    101 H101       27.1527  -48.9845  -54.9946 H         1 UNK         0.3118 
    102 H102       25.0966  -46.7206  -55.9414 H         1 UNK         0.0546 
    103 H103       23.2771  -48.3619  -54.1110 H         1 UNK         0.0828 
    104 H104       22.8408  -47.6238  -55.6413 H         1 UNK         0.0828 
    105 H105       23.2366  -46.6054  -54.2690 H         1 UNK         0.0828 
    106 H106       26.4543  -46.3624  -54.2843 H         1 UNK         0.3005 
    107 H107       27.6279  -46.4606  -52.5541 H         1 UNK         0.1257 
    108 H108       25.8726  -47.3705  -50.2278 H         1 UNK         0.0775 
    109 H109       25.9248  -45.7823  -50.9449 H         1 UNK         0.0775 
    110 H110       27.4411  -43.8517  -50.0429 H         1 UNK         0.0840 
    111 H111       28.9879  -44.0859  -49.2644 H         1 UNK         0.0840 
    112 H112       28.3125  -48.5270  -50.7978 H         1 UNK         0.2987 
    113 H113       30.5708  -49.2702  -51.4077 H         1 UNK         0.0785 
    114 H114       30.2910  -51.7736  -51.4951 H         1 UNK         0.0798 
    115 H115       28.9549  -51.5951  -52.6281 H         1 UNK         0.0798 
    116 H116       28.8025  -50.9981  -50.9821 H         1 UNK         0.0798 
    117 H117       30.5501  -49.8436  -54.2737 H         1 UNK         0.3079 
    118 H118       33.3710  -51.0164  -54.7808 H         1 UNK         0.0794 
    119 H119       31.4266  -50.1466  -56.0388 H         1 UNK         0.0786 
    120 H120       32.8734  -49.4593  -56.7368 H         1 UNK         0.0786 
    121 H121       31.8741  -48.4817  -55.6710 H         1 UNK         0.0786 
    122 H122       34.2963  -48.4928  -53.7317 H         1 UNK         0.3032 
    123 H123       37.0474  -48.7471  -53.9658 H         1 UNK         0.1094 
    124 H124       38.4860  -47.6805  -55.7189 H         1 UNK         0.0794 
    125 H125       38.0975  -49.3455  -56.1158 H         1 UNK         0.0794 
    126 H126       37.2633  -48.0353  -56.9381 H         1 UNK         0.0794 
    127 H127       36.4407  -46.6261  -53.6835 H         1 UNK         0.3016 
@<TRIPOS>BOND
     1    1    2 1    
     2    1   67 1    
     3    1   68 1    
     4    1   69 1    
     5    2    3 2    
     6    2    4 am   BACKBONE|DICT|INTERRES
     7    4    5 1    
     8    4   70 1    
     9    5    6 1    
    10    5   65 1    
    11    5   71 1    
    12    6    7 1    
    13    6   72 1    
    14    6   73 1    
    15    7    8 1    
    16    8    9 1    
    17    8   74 1    
    18    8   75 1    
    19    9   10 ar   
    20    9   14 ar   
    21   10   11 ar   
    22   10   76 1    
    23   11   12 ar   
    24   11   48 1    
    25   12   13 ar   
    26   12   77 1    
    27   13   14 ar   
    28   13   15 1    
    29   14   78 1    
    30   15   16 1    
    31   15   79 1    
    32   15   80 1    
    33   16   17 1    
    34   17   18 1    
    35   17   81 1    
    36   17   82 1    
    37   18   19 1    
    38   18   22 1    
    39   18   83 1    
    40   19   20 am   BACKBONE|DICT|INTERRES
    41   19   21 2    
    42   20   84 1    
    43   20   85 1    
    44   22   23 am   BACKBONE|DICT|INTERRES
    45   22   86 1    
    46   23   24 2    
    47   23   25 1    
    48   25   26 1    
    49   25   27 1    
    50   25   87 1    
    51   26   88 1    
    52   26   89 1    
    53   26   90 1    
    54   27   28 am   BACKBONE|DICT|INTERRES
    55   27   91 1    
    56   28   29 2    
    57   28   30 1    
    58   30   31 1    
    59   30   32 1    
    60   30   92 1    
    61   31   93 1    
    62   31   94 1    
    63   31   95 1    
    64   32   33 am   BACKBONE|DICT|INTERRES
    65   32   96 1    
    66   33   34 2    
    67   33   35 1    
    68   35   36 1    
    69   35   37 1    
    70   35   97 1    
    71   36   98 1    
    72   36   99 1    
    73   36  100 1    
    74   37   38 am   BACKBONE|DICT|INTERRES
    75   37  101 1    
    76   38   39 2    
    77   38   40 1    
    78   40   41 1    
    79   40   42 1    
    80   40  102 1    
    81   41  103 1    
    82   41  104 1    
    83   41  105 1    
    84   42   43 am   BACKBONE|DICT|INTERRES
    85   42  106 1    
    86   43   44 2    
    87   43   45 1    
    88   45   46 1    
    89   45   49 1    
    90   45  107 1    
    91   46   47 1    
    92   46  108 1    
    93   46  109 1    
    94   47   48 1    
    95   48  110 1    
    96   48  111 1    
    97   49   50 am   BACKBONE|DICT|INTERRES
    98   49  112 1    
    99   50   51 2    
   100   50   52 1    
   101   52   53 1    
   102   52   54 1    
   103   52  113 1    
   104   53  114 1    
   105   53  115 1    
   106   53  116 1    
   107   54   55 am   BACKBONE|DICT|INTERRES
   108   54  117 1    
   109   55   56 2    
   110   55   57 1    
   111   57   58 1    
   112   57   59 1    
   113   57  118 1    
   114   58  119 1    
   115   58  120 1    
   116   58  121 1    
   117   59   60 am   BACKBONE|DICT|INTERRES
   118   59  122 1    
   119   60   61 2    
   120   60   62 1    
   121   62   63 1    
   122   62   64 1    
   123   62  123 1    
   124   63  124 1    
   125   63  125 1    
   126   63  126 1    
   127   64   65 am   BACKBONE|DICT|INTERRES
   128   64  127 1    
   129   65   66 2    
@<TRIPOS>SUBSTRUCTURE
     1 UNK         1 GROUP             0       ****    0 ROOT    
