@<TRIPOS>MOLECULE
3R134
127   129    1
SMALL
USER_CHARGES


@<TRIPOS>ATOM
      1 CA         37.5874  -45.3429  -55.8048 C.3       0 UNK        -0.1968 
      2 C          36.2070  -45.4768  -55.1797 C.2       0 UNK         0.4852 
      3 O          35.4684  -46.4003  -55.5228 O.2       0 UNK        -0.5359 
      4 N          35.8609  -44.5747  -54.2520 N.am      1 UNK        -0.4300 
      5 CA         34.5692  -44.4810  -53.5535 C.3       1 UNK         0.0863 
      6 C6         34.3385  -43.0464  -53.0048 C.3       11 UNK        -0.0953 
      7 S7         34.3332  -41.7938  -54.3353 S.3       11 UNK        -0.2369 
      8 C8         32.5846  -41.2812  -54.3886 C.3       11 UNK         0.0226 
      9 C9         31.6400  -42.4534  -54.6160 C.ar      11 UNK        -0.0699 
     10 C10        31.6442  -43.1390  -55.8338 C.ar      11 UNK        -0.0804 
     11 C11        30.8010  -44.2355  -56.0290 C.ar      11 UNK        -0.0871 
     12 C12        29.9267  -44.6228  -55.0085 C.ar      11 UNK        -0.1008 
     13 C13        29.9225  -43.9572  -53.7770 C.ar      11 UNK        -0.0735 
     14 C14        30.7781  -42.8671  -53.5956 C.ar      11 UNK        -0.0945 
     15 C15        29.0836  -44.4357  -52.5920 C.3       11 UNK         0.0169 
     16 S16        27.5894  -45.3891  -53.0213 S.3       11 UNK        -0.2669 
     17 C17        26.4077  -44.0667  -53.4357 C.3       11 UNK        -0.0850 
     18 CA         25.4424  -44.4847  -54.5762 C.3       10 UNK         0.0855 
     19 C          24.1788  -43.5728  -54.5935 C.2       10 UNK         0.5543 
     20 N          23.9228  -42.8003  -55.6429 N.am      10 UNK        -0.7343 
     21 O          23.4107  -43.5728  -53.6348 O.2       10 UNK        -0.5027 
     22 N          26.1362  -44.5798  -55.8737 N.am      10 UNK        -0.4495 
     23 C          25.6961  -45.2960  -56.9171 C.2       10 UNK         0.4903 
     24 O          24.7299  -46.0563  -56.8650 O.2       10 UNK        -0.4860 
     25 CA         26.4081  -45.1033  -58.2637 C.3       9 UNK         0.0227 
     26 CB         27.4057  -43.9257  -58.3036 C.3       9 UNK        -0.1964 
     27 N          27.0683  -46.3485  -58.6566 N.am      9 UNK        -0.4231 
     28 C          27.0565  -46.8583  -59.8964 C.2       9 UNK         0.5014 
     29 O          26.4911  -46.3247  -60.8524 O.2       9 UNK        -0.5270 
     30 CA         27.8005  -48.1827  -60.1269 C.3       8 UNK         0.0284 
     31 CB         29.3034  -47.9252  -60.3344 C.3       8 UNK        -0.1977 
     32 N          27.6158  -49.1175  -59.0159 N.am      8 UNK        -0.4342 
     33 C          26.7334  -50.1270  -58.9950 C.2       8 UNK         0.5039 
     34 O          25.9642  -50.3805  -59.9232 O.2       8 UNK        -0.5547 
     35 CA         26.7081  -51.0282  -57.7435 C.3       7 UNK         0.0281 
     36 CB         27.5053  -52.3178  -57.9977 C.3       7 UNK        -0.1963 
     37 N          27.2409  -50.3643  -56.5526 N.am      7 UNK        -0.4444 
     38 C          26.5750  -49.4393  -55.8456 C.2       7 UNK         0.5104 
     39 O          25.3881  -49.1735  -56.0293 O.2       7 UNK        -0.5100 
     40 CA         27.3620  -48.6559  -54.7748 C.3       6 UNK         0.0396 
     41 CB         26.9732  -49.1299  -53.3667 C.3       6 UNK        -0.1801 
     42 N          28.8218  -48.7222  -54.9287 N.am      6 UNK        -0.4747 
     43 C          29.4990  -48.2585  -55.9920 C.2       6 UNK         0.5012 
     44 O          28.9375  -47.6885  -56.9264 O.2       6 UNK        -0.5003 
     45 CA         31.0152  -48.5474  -56.0833 C.3       5 UNK         0.0782 
     46 C46        31.8801  -47.2804  -55.8594 C.3       11 UNK        -0.0868 
     47 S47        32.1645  -46.2811  -57.3643 S.3       11 UNK        -0.2515 
     48 C48        30.8479  -45.0184  -57.3332 C.3       11 UNK         0.0199 
     49 N          31.4240  -49.6309  -55.1840 N.am      5 UNK        -0.4607 
     50 C          31.1031  -50.9232  -55.3441 C.2       4 UNK         0.5031 
     51 O          30.4285  -51.3372  -56.2870 O.2       4 UNK        -0.5119 
     52 CA         31.5810  -51.9172  -54.2677 C.3       4 UNK         0.0263 
     53 CB         32.8494  -52.6449  -54.7407 C.3       4 UNK        -0.1967 
     54 N          31.8406  -51.2966  -52.9649 N.am      4 UNK        -0.4237 
     55 C          30.9050  -50.7427  -52.1793 C.2       3 UNK         0.4908 
     56 O          29.7028  -50.7574  -52.4398 O.2       3 UNK        -0.5102 
     57 CA         31.3940  -50.0028  -50.9185 C.3       3 UNK         0.0241 
     58 CB         31.3802  -50.9450  -49.7041 C.3       3 UNK        -0.1971 
     59 N          32.7258  -49.3940  -51.0515 N.am      3 UNK        -0.4139 
     60 C          33.0611  -48.4834  -51.9767 C.2       2 UNK         0.5016 
     61 O          32.2812  -48.0757  -52.8394 O.2       2 UNK        -0.5319 
     62 CA         34.5239  -48.0113  -51.9804 C.3       2 UNK         0.0286 
     63 CB         35.4430  -49.1174  -52.5274 C.3       2 UNK        -0.1963 
     64 N          34.6908  -46.8236  -52.8176 N.am      2 UNK        -0.4790 
     65 C          34.4152  -45.5654  -52.4572 C.2       1 UNK         0.5024 
     66 O          34.0765  -45.2540  -51.3134 O.2       1 UNK        -0.4888 
     67 H67        38.1324  -44.4847  -55.4120 H         1 UNK         0.0892 
     68 H68        38.1763  -46.2384  -55.6084 H         1 UNK         0.0892 
     69 H69        37.4988  -45.2228  -56.8842 H         1 UNK         0.0892 
     70 H70        36.5248  -43.8549  -54.0051 H         1 UNK         0.3107 
     71 H71        33.7801  -44.6836  -54.2819 H         1 UNK         0.0773 
     72 H72        35.1199  -42.7812  -52.2905 H         1 UNK         0.0680 
     73 H73        33.3986  -42.9847  -52.4545 H         1 UNK         0.0680 
     74 H74        32.4544  -40.5546  -55.1917 H         1 UNK         0.0650 
     75 H75        32.3417  -40.7598  -53.4615 H         1 UNK         0.0650 
     76 H76        32.3256  -42.8365  -56.6173 H         1 UNK         0.1397 
     77 H77        29.2874  -45.4797  -55.1626 H         1 UNK         0.1363 
     78 H78        30.7929  -42.3539  -52.6436 H         1 UNK         0.1355 
     79 H79        29.7186  -45.0706  -51.9727 H         1 UNK         0.0707 
     80 H80        28.7928  -43.5901  -51.9665 H         1 UNK         0.0707 
     81 H81        25.8594  -43.8384  -52.5194 H         1 UNK         0.1034 
     82 H82        26.9422  -43.1533  -53.7031 H         1 UNK         0.1034 
     83 H83        25.0676  -45.4812  -54.3328 H         1 UNK         0.0482 
     84 H84        23.0986  -42.2201  -55.6383 H         1 UNK         0.3460 
     85 H85        24.5419  -42.7903  -56.4365 H         1 UNK         0.3460 
     86 H86        26.9354  -43.9766  -55.9959 H         1 UNK         0.2989 
     87 H87        25.6132  -44.8768  -58.9774 H         1 UNK         0.0559 
     88 H88        26.8959  -42.9770  -58.1308 H         1 UNK         0.0848 
     89 H89        27.8876  -43.8518  -59.2787 H         1 UNK         0.0848 
     90 H90        28.1893  -44.0157  -57.5543 H         1 UNK         0.0848 
     91 H91        27.5737  -46.8448  -57.9264 H         1 UNK         0.3144 
     92 H92        27.4121  -48.6251  -61.0469 H         1 UNK         0.0727 
     93 H93        29.8382  -48.8517  -60.5436 H         1 UNK         0.0790 
     94 H94        29.7659  -47.4620  -59.4621 H         1 UNK         0.0790 
     95 H95        29.4695  -47.2578  -61.1811 H         1 UNK         0.0790 
     96 H96        28.1670  -48.9308  -58.1853 H         1 UNK         0.3215 
     97 H97        25.6677  -51.3026  -57.5552 H         1 UNK         0.0863 
     98 H98        27.4612  -52.9885  -57.1395 H         1 UNK         0.0808 
     99 H99        28.5554  -52.1093  -58.2068 H         1 UNK         0.0808 
    100 H100       27.1045  -52.8613  -58.8544 H         1 UNK         0.0808 
    101 H101       28.2079  -50.5526  -56.3184 H         1 UNK         0.3118 
    102 H102       27.0708  -47.6089  -54.8755 H         1 UNK         0.0546 
    103 H103       27.1942  -50.1879  -53.2225 H         1 UNK         0.0828 
    104 H104       25.9053  -48.9933  -53.1918 H         1 UNK         0.0828 
    105 H105       27.5011  -48.5673  -52.5966 H         1 UNK         0.0828 
    106 H106       29.3319  -49.2051  -54.1995 H         1 UNK         0.3005 
    107 H107       31.1972  -48.9032  -57.1002 H         1 UNK         0.1257 
    108 H108       32.8800  -47.5820  -55.5426 H         1 UNK         0.0775 
    109 H109       31.5123  -46.6784  -55.0308 H         1 UNK         0.0775 
    110 H110       31.0076  -44.3308  -58.1649 H         1 UNK         0.0840 
    111 H111       29.8916  -45.4956  -57.5312 H         1 UNK         0.0840 
    112 H112       31.9142  -49.3361  -54.3452 H         1 UNK         0.2987 
    113 H113       30.7889  -52.6574  -54.1351 H         1 UNK         0.0785 
    114 H114       32.6802  -53.1415  -55.6974 H         1 UNK         0.0798 
    115 H115       33.1558  -53.4128  -54.0300 H         1 UNK         0.0798 
    116 H116       33.6848  -51.9563  -54.8746 H         1 UNK         0.0798 
    117 H117       32.8041  -51.2433  -52.6694 H         1 UNK         0.3079 
    118 H118       30.6860  -49.1928  -50.7300 H         1 UNK         0.0794 
    119 H119       31.6189  -50.4112  -48.7839 H         1 UNK         0.0786 
    120 H120       32.0959  -51.7605  -49.8162 H         1 UNK         0.0786 
    121 H121       30.3945  -51.3928  -49.5689 H         1 UNK         0.0786 
    122 H122       33.4243  -49.6897  -50.3842 H         1 UNK         0.3032 
    123 H123       34.8162  -47.7720  -50.9553 H         1 UNK         0.1094 
    124 H124       35.1684  -49.4043  -53.5437 H         1 UNK         0.0794 
    125 H125       36.4838  -48.7929  -52.5438 H         1 UNK         0.0794 
    126 H126       35.3984  -50.0152  -51.9098 H         1 UNK         0.0794 
    127 H127       34.9273  -46.9758  -53.7952 H         1 UNK         0.3016 
@<TRIPOS>BOND
     1    1    2 1    
     2    1   67 1    
     3    1   68 1    
     4    1   69 1    
     5    2    3 2    
     6    2    4 am   BACKBONE|DICT|INTERRES
     7    4    5 1    
     8    4   70 1    
     9    5    6 1    
    10    5   65 1    
    11    5   71 1    
    12    6    7 1    
    13    6   72 1    
    14    6   73 1    
    15    7    8 1    
    16    8    9 1    
    17    8   74 1    
    18    8   75 1    
    19    9   10 ar   
    20    9   14 ar   
    21   10   11 ar   
    22   10   76 1    
    23   11   12 ar   
    24   11   48 1    
    25   12   13 ar   
    26   12   77 1    
    27   13   14 ar   
    28   13   15 1    
    29   14   78 1    
    30   15   16 1    
    31   15   79 1    
    32   15   80 1    
    33   16   17 1    
    34   17   18 1    
    35   17   81 1    
    36   17   82 1    
    37   18   19 1    
    38   18   22 1    
    39   18   83 1    
    40   19   20 am   BACKBONE|DICT|INTERRES
    41   19   21 2    
    42   20   84 1    
    43   20   85 1    
    44   22   23 am   BACKBONE|DICT|INTERRES
    45   22   86 1    
    46   23   24 2    
    47   23   25 1    
    48   25   26 1    
    49   25   27 1    
    50   25   87 1    
    51   26   88 1    
    52   26   89 1    
    53   26   90 1    
    54   27   28 am   BACKBONE|DICT|INTERRES
    55   27   91 1    
    56   28   29 2    
    57   28   30 1    
    58   30   31 1    
    59   30   32 1    
    60   30   92 1    
    61   31   93 1    
    62   31   94 1    
    63   31   95 1    
    64   32   33 am   BACKBONE|DICT|INTERRES
    65   32   96 1    
    66   33   34 2    
    67   33   35 1    
    68   35   36 1    
    69   35   37 1    
    70   35   97 1    
    71   36   98 1    
    72   36   99 1    
    73   36  100 1    
    74   37   38 am   BACKBONE|DICT|INTERRES
    75   37  101 1    
    76   38   39 2    
    77   38   40 1    
    78   40   41 1    
    79   40   42 1    
    80   40  102 1    
    81   41  103 1    
    82   41  104 1    
    83   41  105 1    
    84   42   43 am   BACKBONE|DICT|INTERRES
    85   42  106 1    
    86   43   44 2    
    87   43   45 1    
    88   45   46 1    
    89   45   49 1    
    90   45  107 1    
    91   46   47 1    
    92   46  108 1    
    93   46  109 1    
    94   47   48 1    
    95   48  110 1    
    96   48  111 1    
    97   49   50 am   BACKBONE|DICT|INTERRES
    98   49  112 1    
    99   50   51 2    
   100   50   52 1    
   101   52   53 1    
   102   52   54 1    
   103   52  113 1    
   104   53  114 1    
   105   53  115 1    
   106   53  116 1    
   107   54   55 am   BACKBONE|DICT|INTERRES
   108   54  117 1    
   109   55   56 2    
   110   55   57 1    
   111   57   58 1    
   112   57   59 1    
   113   57  118 1    
   114   58  119 1    
   115   58  120 1    
   116   58  121 1    
   117   59   60 am   BACKBONE|DICT|INTERRES
   118   59  122 1    
   119   60   61 2    
   120   60   62 1    
   121   62   63 1    
   122   62   64 1    
   123   62  123 1    
   124   63  124 1    
   125   63  125 1    
   126   63  126 1    
   127   64   65 am   BACKBONE|DICT|INTERRES
   128   64  127 1    
   129   65   66 2    
@<TRIPOS>SUBSTRUCTURE
     1 UNK         1 GROUP             0       ****    0 ROOT    
