@<TRIPOS>MOLECULE
3R134
127   129    1
SMALL
USER_CHARGES


@<TRIPOS>ATOM
      1 CA         27.6713  -47.5538  -50.3225 C.3       0 UNK        -0.1968 
      2 C          29.0703  -46.9658  -50.2017 C.2       0 UNK         0.4852 
      3 O          29.5490  -46.7460  -49.0878 O.2       0 UNK        -0.5359 
      4 N          29.7214  -46.7045  -51.3415 N.am      1 UNK        -0.4300 
      5 CA         31.0963  -46.2026  -51.4405 C.3       1 UNK         0.0863 
      6 C6         31.3950  -45.6806  -52.8688 C.3       11 UNK        -0.0953 
      7 S7         30.3421  -44.2487  -53.2840 S.3       11 UNK        -0.2369 
      8 C8         31.5305  -43.0710  -53.9998 C.3       11 UNK         0.0226 
      9 C9         31.7839  -43.3605  -55.4718 C.ar      11 UNK        -0.0699 
     10 C10        32.7620  -44.2840  -55.8517 C.ar      11 UNK        -0.0804 
     11 C11        32.9818  -44.5693  -57.2029 C.ar      11 UNK        -0.0871 
     12 C12        32.2432  -43.8934  -58.1776 C.ar      11 UNK        -0.1008 
     13 C13        31.2574  -42.9735  -57.8104 C.ar      11 UNK        -0.0735 
     14 C14        31.0307  -42.7109  -56.4558 C.ar      11 UNK        -0.0945 
     15 C15        30.4224  -42.2949  -58.8841 C.3       11 UNK         0.0169 
     16 S16        29.1392  -43.4296  -59.4990 S.3       11 UNK        -0.2669 
     17 C17        27.6024  -42.5185  -59.1232 C.3       11 UNK        -0.0850 
     18 CA         27.2216  -42.4626  -57.6176 C.3       10 UNK         0.0855 
     19 C          25.8208  -41.8004  -57.4525 C.2       10 UNK         0.5543 
     20 N          24.7751  -42.5343  -57.0865 N.am      10 UNK        -0.7343 
     21 O          25.6843  -40.5987  -57.6676 O.2       10 UNK        -0.5027 
     22 N          27.3651  -43.7684  -56.9577 N.am      10 UNK        -0.4495 
     23 C          27.2899  -43.9826  -55.6375 C.2       10 UNK         0.4903 
     24 O          27.1887  -43.0794  -54.8060 O.2       10 UNK        -0.4860 
     25 CA         27.3162  -45.4546  -55.1732 C.3       9 UNK         0.0227 
     26 CB         26.5699  -45.6666  -53.8401 C.3       9 UNK        -0.1964 
     27 N          26.8410  -46.4096  -56.1836 N.am      9 UNK        -0.4231 
     28 C          25.6507  -46.4341  -56.8063 C.2       9 UNK         0.5014 
     29 O          24.7549  -45.6100  -56.6158 O.2       9 UNK        -0.5270 
     30 CA         25.4396  -47.5475  -57.8436 C.3       8 UNK         0.0284 
     31 CB         26.0682  -47.1427  -59.1881 C.3       8 UNK        -0.1977 
     32 N          26.0313  -48.8089  -57.3920 N.am      8 UNK        -0.4342 
     33 C          25.3430  -49.8806  -56.9760 C.2       8 UNK         0.5039 
     34 O          24.1153  -49.9712  -57.0216 O.2       8 UNK        -0.5547 
     35 CA         26.1589  -51.0542  -56.3957 C.3       7 UNK         0.0281 
     36 CB         26.5065  -52.0660  -57.4995 C.3       7 UNK        -0.1963 
     37 N          27.3914  -50.6305  -55.7240 N.am      7 UNK        -0.4444 
     38 C          27.4378  -49.8571  -54.6299 C.2       7 UNK         0.5104 
     39 O          26.4419  -49.5169  -53.9919 O.2       7 UNK        -0.5100 
     40 CA         28.8186  -49.3489  -54.1722 C.3       6 UNK         0.0396 
     41 CB         29.3005  -50.1875  -52.9798 C.3       6 UNK        -0.1801 
     42 N          29.8794  -49.3154  -55.1908 N.am      6 UNK        -0.4747 
     43 C          29.8190  -48.7499  -56.4094 C.2       6 UNK         0.5012 
     44 O          28.8000  -48.2293  -56.8644 O.2       6 UNK        -0.5003 
     45 CA         31.0973  -48.7405  -57.2757 C.3       5 UNK         0.0782 
     46 C46        31.6954  -47.3154  -57.2526 C.3       11 UNK        -0.0868 
     47 S47        33.1408  -47.1056  -58.3481 S.3       11 UNK        -0.2515 
     48 C48        33.9710  -45.6550  -57.6072 C.3       11 UNK         0.0199 
     49 N          32.0940  -49.7345  -56.8731 N.am      5 UNK        -0.4607 
     50 C          31.9424  -51.0639  -56.8164 C.2       4 UNK         0.5031 
     51 O          30.9321  -51.6535  -57.2000 O.2       4 UNK        -0.5119 
     52 CA         33.1018  -51.8648  -56.1849 C.3       4 UNK         0.0263 
     53 CB         33.8754  -52.6326  -57.2690 C.3       4 UNK        -0.1967 
     54 N          34.0469  -51.0470  -55.4063 N.am      4 UNK        -0.4237 
     55 C          33.7323  -50.3278  -54.3187 C.2       3 UNK         0.4908 
     56 O          32.6070  -50.3101  -53.8134 O.2       3 UNK        -0.5102 
     57 CA         34.8307  -49.4104  -53.7683 C.3       3 UNK         0.0241 
     58 CB         35.0805  -48.2339  -54.7367 C.3       3 UNK        -0.1971 
     59 N          34.4059  -48.8999  -52.4685 N.am      3 UNK        -0.4139 
     60 C          35.1702  -48.2779  -51.5649 C.2       2 UNK         0.5016 
     61 O          36.3807  -48.0946  -51.7095 O.2       2 UNK        -0.5319 
     62 CA         34.4516  -47.7447  -50.3063 C.3       2 UNK         0.0286 
     63 CB         35.3999  -46.9900  -49.3550 C.3       2 UNK        -0.1963 
     64 N          33.3287  -46.8632  -50.6513 N.am      2 UNK        -0.4790 
     65 C          32.1163  -47.2863  -51.0318 C.2       1 UNK         0.5024 
     66 O          31.8218  -48.4804  -51.1092 O.2       1 UNK        -0.4888 
     67 H67        26.9346  -46.8542  -49.9285 H         1 UNK         0.0892 
     68 H68        27.6035  -48.4791  -49.7510 H         1 UNK         0.0892 
     69 H69        27.4087  -47.7782  -51.3563 H         1 UNK         0.0892 
     70 H70        29.2751  -46.9009  -52.2230 H         1 UNK         0.3107 
     71 H71        31.2011  -45.3735  -50.7369 H         1 UNK         0.0773 
     72 H72        31.2340  -46.4616  -53.6149 H         1 UNK         0.0680 
     73 H73        32.4422  -45.3870  -52.9546 H         1 UNK         0.0680 
     74 H74        31.1267  -42.0637  -53.8872 H         1 UNK         0.0650 
     75 H75        32.4650  -43.0845  -53.4371 H         1 UNK         0.0650 
     76 H76        33.3323  -44.8018  -55.0936 H         1 UNK         0.1397 
     77 H77        32.4024  -44.1201  -59.2233 H         1 UNK         0.1363 
     78 H78        30.2601  -42.0102  -56.1651 H         1 UNK         0.1355 
     79 H79        31.0626  -41.9978  -59.7161 H         1 UNK         0.0707 
     80 H80        29.9761  -41.3765  -58.5002 H         1 UNK         0.0707 
     81 H81        26.8040  -43.0000  -59.6916 H         1 UNK         0.1034 
     82 H82        27.6868  -41.5092  -59.5314 H         1 UNK         0.1034 
     83 H83        27.9297  -41.7936  -57.1260 H         1 UNK         0.0482 
     84 H84        24.8745  -43.5267  -56.9058 H         1 UNK         0.3460 
     85 H85        23.8751  -42.0935  -56.9832 H         1 UNK         0.3460 
     86 H86        27.4726  -44.5619  -57.5706 H         1 UNK         0.2989 
     87 H87        28.3658  -45.7010  -55.0093 H         1 UNK         0.0559 
     88 H88        27.0247  -45.0826  -53.0389 H         1 UNK         0.0848 
     89 H89        26.5915  -46.7117  -53.5332 H         1 UNK         0.0848 
     90 H90        25.5252  -45.3626  -53.9136 H         1 UNK         0.0848 
     91 H91        27.5339  -47.1031  -56.4620 H         1 UNK         0.3144 
     92 H92        24.3637  -47.6614  -57.9920 H         1 UNK         0.0727 
     93 H93        25.8721  -47.8920  -59.9551 H         1 UNK         0.0790 
     94 H94        27.1495  -47.0184  -59.1124 H         1 UNK         0.0790 
     95 H95        25.6541  -46.1985  -59.5451 H         1 UNK         0.0790 
     96 H96        27.0423  -48.8224  -57.2913 H         1 UNK         0.3215 
     97 H97        25.5313  -51.5548  -55.6551 H         1 UNK         0.0863 
     98 H98        27.0092  -52.9429  -57.0910 H         1 UNK         0.0808 
     99 H99        27.1563  -51.6291  -58.2589 H         1 UNK         0.0808 
    100 H100       25.6052  -52.4170  -58.0043 H         1 UNK         0.0808 
    101 H101       28.2660  -50.8728  -56.1689 H         1 UNK         0.3118 
    102 H102       28.6798  -48.3209  -53.8341 H         1 UNK         0.0546 
    103 H103       28.5656  -50.1907  -52.1736 H         1 UNK         0.0828 
    104 H104       30.2271  -49.7950  -52.5673 H         1 UNK         0.0828 
    105 H105       29.4800  -51.2249  -53.2647 H         1 UNK         0.0828 
    106 H106       30.7673  -49.7137  -54.9048 H         1 UNK         0.3005 
    107 H107       30.7894  -48.9776  -58.2964 H         1 UNK         0.1257 
    108 H108       31.9855  -47.0504  -56.2338 H         1 UNK         0.0775 
    109 H109       30.9473  -46.5801  -57.5588 H         1 UNK         0.0775 
    110 H110       34.5568  -45.9833  -56.7478 H         1 UNK         0.0840 
    111 H111       34.6850  -45.2478  -58.3244 H         1 UNK         0.0840 
    112 H112       32.9774  -49.3558  -56.5687 H         1 UNK         0.2987 
    113 H113       32.6532  -52.5901  -55.5027 H         1 UNK         0.0785 
    114 H114       34.3627  -51.9565  -57.9728 H         1 UNK         0.0798 
    115 H115       33.2076  -53.2754  -57.8446 H         1 UNK         0.0798 
    116 H116       34.6408  -53.2746  -56.8326 H         1 UNK         0.0798 
    117 H117       34.9926  -51.0003  -55.7592 H         1 UNK         0.3079 
    118 H118       35.7440  -49.9954  -53.6416 H         1 UNK         0.0794 
    119 H119       34.1854  -47.6229  -54.8602 H         1 UNK         0.0786 
    120 H120       35.3801  -48.5824  -55.7257 H         1 UNK         0.0786 
    121 H121       35.8779  -47.5827  -54.3786 H         1 UNK         0.0786 
    122 H122       33.4196  -49.0464  -52.2622 H         1 UNK         0.3032 
    123 H123       34.0697  -48.6154  -49.7674 H         1 UNK         0.1094 
    124 H124       35.8317  -46.1079  -49.8296 H         1 UNK         0.0794 
    125 H125       34.8815  -46.6663  -48.4523 H         1 UNK         0.0794 
    126 H126       36.2263  -47.6282  -49.0389 H         1 UNK         0.0794 
    127 H127       33.5199  -45.8711  -50.6422 H         1 UNK         0.3016 
@<TRIPOS>BOND
     1    1    2 1    
     2    1   67 1    
     3    1   68 1    
     4    1   69 1    
     5    2    3 2    
     6    2    4 am   BACKBONE|DICT|INTERRES
     7    4    5 1    
     8    4   70 1    
     9    5    6 1    
    10    5   65 1    
    11    5   71 1    
    12    6    7 1    
    13    6   72 1    
    14    6   73 1    
    15    7    8 1    
    16    8    9 1    
    17    8   74 1    
    18    8   75 1    
    19    9   10 ar   
    20    9   14 ar   
    21   10   11 ar   
    22   10   76 1    
    23   11   12 ar   
    24   11   48 1    
    25   12   13 ar   
    26   12   77 1    
    27   13   14 ar   
    28   13   15 1    
    29   14   78 1    
    30   15   16 1    
    31   15   79 1    
    32   15   80 1    
    33   16   17 1    
    34   17   18 1    
    35   17   81 1    
    36   17   82 1    
    37   18   19 1    
    38   18   22 1    
    39   18   83 1    
    40   19   20 am   BACKBONE|DICT|INTERRES
    41   19   21 2    
    42   20   84 1    
    43   20   85 1    
    44   22   23 am   BACKBONE|DICT|INTERRES
    45   22   86 1    
    46   23   24 2    
    47   23   25 1    
    48   25   26 1    
    49   25   27 1    
    50   25   87 1    
    51   26   88 1    
    52   26   89 1    
    53   26   90 1    
    54   27   28 am   BACKBONE|DICT|INTERRES
    55   27   91 1    
    56   28   29 2    
    57   28   30 1    
    58   30   31 1    
    59   30   32 1    
    60   30   92 1    
    61   31   93 1    
    62   31   94 1    
    63   31   95 1    
    64   32   33 am   BACKBONE|DICT|INTERRES
    65   32   96 1    
    66   33   34 2    
    67   33   35 1    
    68   35   36 1    
    69   35   37 1    
    70   35   97 1    
    71   36   98 1    
    72   36   99 1    
    73   36  100 1    
    74   37   38 am   BACKBONE|DICT|INTERRES
    75   37  101 1    
    76   38   39 2    
    77   38   40 1    
    78   40   41 1    
    79   40   42 1    
    80   40  102 1    
    81   41  103 1    
    82   41  104 1    
    83   41  105 1    
    84   42   43 am   BACKBONE|DICT|INTERRES
    85   42  106 1    
    86   43   44 2    
    87   43   45 1    
    88   45   46 1    
    89   45   49 1    
    90   45  107 1    
    91   46   47 1    
    92   46  108 1    
    93   46  109 1    
    94   47   48 1    
    95   48  110 1    
    96   48  111 1    
    97   49   50 am   BACKBONE|DICT|INTERRES
    98   49  112 1    
    99   50   51 2    
   100   50   52 1    
   101   52   53 1    
   102   52   54 1    
   103   52  113 1    
   104   53  114 1    
   105   53  115 1    
   106   53  116 1    
   107   54   55 am   BACKBONE|DICT|INTERRES
   108   54  117 1    
   109   55   56 2    
   110   55   57 1    
   111   57   58 1    
   112   57   59 1    
   113   57  118 1    
   114   58  119 1    
   115   58  120 1    
   116   58  121 1    
   117   59   60 am   BACKBONE|DICT|INTERRES
   118   59  122 1    
   119   60   61 2    
   120   60   62 1    
   121   62   63 1    
   122   62   64 1    
   123   62  123 1    
   124   63  124 1    
   125   63  125 1    
   126   63  126 1    
   127   64   65 am   BACKBONE|DICT|INTERRES
   128   64  127 1    
   129   65   66 2    
@<TRIPOS>SUBSTRUCTURE
     1 UNK         1 GROUP             0       ****    0 ROOT    
