@<TRIPOS>MOLECULE
3R134
127   129    1
SMALL
USER_CHARGES


@<TRIPOS>ATOM
      1 CA         28.8532  -44.6234  -51.5646 C.3       0 UNK        -0.1968 
      2 C          30.1962  -44.8936  -50.9033 C.2       0 UNK         0.4852 
      3 O          30.2492  -45.1144  -49.6919 O.2       0 UNK        -0.5359 
      4 N          31.2787  -44.8750  -51.6905 N.am      1 UNK        -0.4300 
      5 CA         32.6400  -45.2051  -51.2534 C.3       1 UNK         0.0863 
      6 C6         33.7038  -44.6552  -52.2362 C.3       11 UNK        -0.0953 
      7 S7         33.6650  -42.8338  -52.3181 S.3       11 UNK        -0.2369 
      8 C8         34.2107  -42.5200  -54.0267 C.3       11 UNK         0.0226 
      9 C9         33.2021  -42.9987  -55.0623 C.ar      11 UNK        -0.0699 
     10 C10        33.5502  -44.0000  -55.9745 C.ar      11 UNK        -0.0804 
     11 C11        32.6363  -44.4269  -56.9424 C.ar      11 UNK        -0.0871 
     12 C12        31.3624  -43.8534  -56.9868 C.ar      11 UNK        -0.1008 
     13 C13        31.0024  -42.8514  -56.0808 C.ar      11 UNK        -0.0735 
     14 C14        31.9289  -42.4236  -55.1254 C.ar      11 UNK        -0.0945 
     15 C15        29.6225  -42.2154  -56.1434 C.3       11 UNK         0.0169 
     16 S16        28.5345  -42.8705  -54.8431 S.3       11 UNK        -0.2669 
     17 C17        26.9799  -41.9836  -55.2071 C.3       11 UNK        -0.0850 
     18 CA         25.8344  -42.9335  -55.6469 C.3       10 UNK         0.0855 
     19 C          24.5138  -42.1442  -55.8288 C.2       10 UNK         0.5543 
     20 N          23.7145  -42.0208  -54.7786 N.am      10 UNK        -0.7343 
     21 O          24.2254  -41.6128  -56.9002 O.2       10 UNK        -0.5027 
     22 N          26.1677  -43.6505  -56.8853 N.am      10 UNK        -0.4495 
     23 C          26.3019  -44.9749  -56.9989 C.2       10 UNK         0.4903 
     24 O          26.1780  -45.7661  -56.0626 O.2       10 UNK        -0.4860 
     25 CA         26.6769  -45.4868  -58.3993 C.3       9 UNK         0.0227 
     26 CB         28.1545  -45.1864  -58.7010 C.3       9 UNK        -0.1964 
     27 N          26.4663  -46.9286  -58.5218 N.am      9 UNK        -0.4231 
     28 C          25.2882  -47.5197  -58.7569 C.2       9 UNK         0.5014 
     29 O          24.2362  -46.9033  -58.9347 O.2       9 UNK        -0.5270 
     30 CA         25.2772  -49.0543  -58.8200 C.3       8 UNK         0.0284 
     31 CB         25.8594  -49.5458  -60.1565 C.3       8 UNK        -0.1977 
     32 N          26.0342  -49.6475  -57.7151 N.am      8 UNK        -0.4342 
     33 C          25.5328  -50.4952  -56.8044 C.2       8 UNK         0.5039 
     34 O          24.3628  -50.8811  -56.7984 O.2       8 UNK        -0.5547 
     35 CA         26.4898  -51.0234  -55.7162 C.3       7 UNK         0.0281 
     36 CB         26.9716  -52.4399  -56.0685 C.3       7 UNK        -0.1963 
     37 N          27.6515  -50.1570  -55.5108 N.am      7 UNK        -0.4444 
     38 C          27.6002  -48.9589  -54.9103 C.2       7 UNK         0.5104 
     39 O          26.6060  -48.5498  -54.3106 O.2       7 UNK        -0.5100 
     40 CA         28.8461  -48.0546  -55.0048 C.3       6 UNK         0.0396 
     41 CB         29.4620  -47.8220  -53.6179 C.3       6 UNK        -0.1801 
     42 N          29.8878  -48.5396  -55.9168 N.am      6 UNK        -0.4747 
     43 C          29.7708  -48.6381  -57.2505 C.2       6 UNK         0.5012 
     44 O          28.7307  -48.3867  -57.8605 O.2       6 UNK        -0.5003 
     45 CA         30.9905  -49.1682  -58.0332 C.3       5 UNK         0.0782 
     46 C46        31.8727  -48.0108  -58.5651 C.3       11 UNK        -0.0868 
     47 S47        32.8278  -47.1604  -57.2573 S.3       11 UNK        -0.2515 
     48 C48        33.0333  -45.4922  -57.9522 C.3       11 UNK         0.0199 
     49 N          31.7736  -50.1557  -57.2834 N.am      5 UNK        -0.4607 
     50 C          31.3099  -51.3203  -56.8113 C.2       4 UNK         0.5031 
     51 O          30.1619  -51.7222  -57.0008 O.2       4 UNK        -0.5119 
     52 CA         32.2736  -52.1696  -55.9625 C.3       4 UNK         0.0263 
     53 CB         32.8923  -53.2870  -56.8178 C.3       4 UNK        -0.1967 
     54 N          33.3479  -51.4125  -55.3047 N.am      4 UNK        -0.4237 
     55 C          33.1642  -50.4465  -54.3941 C.2       3 UNK         0.4908 
     56 O          32.0570  -50.0172  -54.0608 O.2       3 UNK        -0.5102 
     57 CA         34.4298  -49.8480  -53.7707 C.3       3 UNK         0.0241 
     58 CB         35.0300  -48.7511  -54.6679 C.3       3 UNK        -0.1971 
     59 N          34.0831  -49.2806  -52.4731 N.am      3 UNK        -0.4139 
     60 C          34.8929  -49.1573  -51.4182 C.2       2 UNK         0.5016 
     61 O          36.0787  -49.4949  -51.4248 O.2       2 UNK        -0.5319 
     62 CA         34.2719  -48.5258  -50.1540 C.3       2 UNK         0.0286 
     63 CB         35.2125  -48.5919  -48.9356 C.3       2 UNK        -0.1963 
     64 N          33.8860  -47.1282  -50.3769 N.am      2 UNK        -0.4790 
     65 C          32.8077  -46.7274  -51.0638 C.2       1 UNK         0.5024 
     66 O          31.9969  -47.5141  -51.5587 O.2       1 UNK        -0.4888 
     67 H67        28.8883  -44.8231  -52.6351 H         1 UNK         0.0892 
     68 H68        28.0822  -45.2612  -51.1330 H         1 UNK         0.0892 
     69 H69        28.5610  -43.5841  -51.4177 H         1 UNK         0.0892 
     70 H70        31.1752  -44.6842  -52.6765 H         1 UNK         0.3107 
     71 H71        32.8029  -44.7405  -50.2782 H         1 UNK         0.0773 
     72 H72        33.5544  -45.0781  -53.2312 H         1 UNK         0.0680 
     73 H73        34.7111  -44.9432  -51.9302 H         1 UNK         0.0680 
     74 H74        35.1838  -42.9895  -54.1795 H         1 UNK         0.0650 
     75 H75        34.3641  -41.4476  -54.1535 H         1 UNK         0.0650 
     76 H76        34.5350  -44.4457  -55.9374 H         1 UNK         0.1397 
     77 H77        30.6562  -44.1804  -57.7353 H         1 UNK         0.1363 
     78 H78        31.6563  -41.6464  -54.4244 H         1 UNK         0.1355 
     79 H79        29.7127  -41.1339  -56.0302 H         1 UNK         0.0707 
     80 H80        29.1650  -42.3886  -57.1184 H         1 UNK         0.0707 
     81 H81        26.6952  -41.4444  -54.3015 H         1 UNK         0.1034 
     82 H82        27.1561  -41.2182  -55.9654 H         1 UNK         0.1034 
     83 H83        25.6716  -43.6510  -54.8400 H         1 UNK         0.0482 
     84 H84        22.8572  -41.4988  -54.8740 H         1 UNK         0.3460 
     85 H85        23.9458  -42.4448  -53.8934 H         1 UNK         0.3460 
     86 H86        26.2232  -43.0741  -57.7129 H         1 UNK         0.2989 
     87 H87        26.0564  -44.9746  -59.1378 H         1 UNK         0.0559 
     88 H88        28.8106  -45.6229  -57.9468 H         1 UNK         0.0848 
     89 H89        28.3424  -44.1127  -58.7191 H         1 UNK         0.0848 
     90 H90        28.4522  -45.5813  -59.6725 H         1 UNK         0.0848 
     91 H91        27.2863  -47.5056  -58.3447 H         1 UNK         0.3144 
     92 H92        24.2319  -49.3674  -58.7757 H         1 UNK         0.0727 
     93 H93        25.7772  -50.6290  -60.2469 H         1 UNK         0.0790 
     94 H94        26.9123  -49.2810  -60.2630 H         1 UNK         0.0790 
     95 H95        25.3242  -49.1087  -61.0006 H         1 UNK         0.0790 
     96 H96        27.0038  -49.3618  -57.6261 H         1 UNK         0.3215 
     97 H97        25.9290  -51.0763  -54.7804 H         1 UNK         0.0863 
     98 H98        27.6285  -52.8412  -55.2966 H         1 UNK         0.0808 
     99 H99        27.5153  -52.4577  -57.0140 H         1 UNK         0.0808 
    100 H100       26.1284  -53.1251  -56.1655 H         1 UNK         0.0808 
    101 H101       28.5175  -50.4400  -55.9533 H         1 UNK         0.3118 
    102 H102       28.5068  -47.0889  -55.3847 H         1 UNK         0.0546 
    103 H103       28.7279  -47.4096  -52.9251 H         1 UNK         0.0828 
    104 H104       30.2919  -47.1172  -53.6676 H         1 UNK         0.0828 
    105 H105       29.8355  -48.7484  -53.1806 H         1 UNK         0.0828 
    106 H106       30.7608  -48.8259  -55.4880 H         1 UNK         0.3005 
    107 H107       30.5811  -49.6918  -58.9004 H         1 UNK         0.1257 
    108 H108       31.2552  -47.2909  -59.1058 H         1 UNK         0.0775 
    109 H109       32.5826  -48.3986  -59.2973 H         1 UNK         0.0775 
    110 H110       34.0760  -45.3580  -58.2441 H         1 UNK         0.0840 
    111 H111       32.4510  -45.3744  -58.8668 H         1 UNK         0.0840 
    112 H112       32.7228  -49.8908  -57.0652 H         1 UNK         0.2987 
    113 H113       31.6753  -52.6344  -55.1759 H         1 UNK         0.0785 
    114 H114       32.1170  -53.8857  -57.2985 H         1 UNK         0.0798 
    115 H115       33.4921  -53.9665  -56.2119 H         1 UNK         0.0798 
    116 H116       33.5298  -52.8859  -57.6068 H         1 UNK         0.0798 
    117 H117       34.2929  -51.6893  -55.5308 H         1 UNK         0.3079 
    118 H118       35.1578  -50.6504  -53.6327 H         1 UNK         0.0794 
    119 H119       34.3500  -47.9047  -54.7714 H         1 UNK         0.0786 
    120 H120       35.2437  -49.1268  -55.6692 H         1 UNK         0.0786 
    121 H121       35.9668  -48.3742  -54.2571 H         1 UNK         0.0786 
    122 H122       33.1166  -48.9723  -52.3880 H         1 UNK         0.3032 
    123 H123       33.3770  -49.1044  -49.9121 H         1 UNK         0.1094 
    124 H124       36.1275  -48.0208  -49.0978 H         1 UNK         0.0794 
    125 H125       34.7286  -48.2036  -48.0392 H         1 UNK         0.0794 
    126 H126       35.5039  -49.6215  -48.7231 H         1 UNK         0.0794 
    127 H127       34.5243  -46.4287  -50.0246 H         1 UNK         0.3016 
@<TRIPOS>BOND
     1    1    2 1    
     2    1   67 1    
     3    1   68 1    
     4    1   69 1    
     5    2    3 2    
     6    2    4 am   BACKBONE|DICT|INTERRES
     7    4    5 1    
     8    4   70 1    
     9    5    6 1    
    10    5   65 1    
    11    5   71 1    
    12    6    7 1    
    13    6   72 1    
    14    6   73 1    
    15    7    8 1    
    16    8    9 1    
    17    8   74 1    
    18    8   75 1    
    19    9   10 ar   
    20    9   14 ar   
    21   10   11 ar   
    22   10   76 1    
    23   11   12 ar   
    24   11   48 1    
    25   12   13 ar   
    26   12   77 1    
    27   13   14 ar   
    28   13   15 1    
    29   14   78 1    
    30   15   16 1    
    31   15   79 1    
    32   15   80 1    
    33   16   17 1    
    34   17   18 1    
    35   17   81 1    
    36   17   82 1    
    37   18   19 1    
    38   18   22 1    
    39   18   83 1    
    40   19   20 am   BACKBONE|DICT|INTERRES
    41   19   21 2    
    42   20   84 1    
    43   20   85 1    
    44   22   23 am   BACKBONE|DICT|INTERRES
    45   22   86 1    
    46   23   24 2    
    47   23   25 1    
    48   25   26 1    
    49   25   27 1    
    50   25   87 1    
    51   26   88 1    
    52   26   89 1    
    53   26   90 1    
    54   27   28 am   BACKBONE|DICT|INTERRES
    55   27   91 1    
    56   28   29 2    
    57   28   30 1    
    58   30   31 1    
    59   30   32 1    
    60   30   92 1    
    61   31   93 1    
    62   31   94 1    
    63   31   95 1    
    64   32   33 am   BACKBONE|DICT|INTERRES
    65   32   96 1    
    66   33   34 2    
    67   33   35 1    
    68   35   36 1    
    69   35   37 1    
    70   35   97 1    
    71   36   98 1    
    72   36   99 1    
    73   36  100 1    
    74   37   38 am   BACKBONE|DICT|INTERRES
    75   37  101 1    
    76   38   39 2    
    77   38   40 1    
    78   40   41 1    
    79   40   42 1    
    80   40  102 1    
    81   41  103 1    
    82   41  104 1    
    83   41  105 1    
    84   42   43 am   BACKBONE|DICT|INTERRES
    85   42  106 1    
    86   43   44 2    
    87   43   45 1    
    88   45   46 1    
    89   45   49 1    
    90   45  107 1    
    91   46   47 1    
    92   46  108 1    
    93   46  109 1    
    94   47   48 1    
    95   48  110 1    
    96   48  111 1    
    97   49   50 am   BACKBONE|DICT|INTERRES
    98   49  112 1    
    99   50   51 2    
   100   50   52 1    
   101   52   53 1    
   102   52   54 1    
   103   52  113 1    
   104   53  114 1    
   105   53  115 1    
   106   53  116 1    
   107   54   55 am   BACKBONE|DICT|INTERRES
   108   54  117 1    
   109   55   56 2    
   110   55   57 1    
   111   57   58 1    
   112   57   59 1    
   113   57  118 1    
   114   58  119 1    
   115   58  120 1    
   116   58  121 1    
   117   59   60 am   BACKBONE|DICT|INTERRES
   118   59  122 1    
   119   60   61 2    
   120   60   62 1    
   121   62   63 1    
   122   62   64 1    
   123   62  123 1    
   124   63  124 1    
   125   63  125 1    
   126   63  126 1    
   127   64   65 am   BACKBONE|DICT|INTERRES
   128   64  127 1    
   129   65   66 2    
@<TRIPOS>SUBSTRUCTURE
     1 UNK         1 GROUP             0       ****    0 ROOT    
