@<TRIPOS>MOLECULE
3R134
127   129    1
SMALL
USER_CHARGES


@<TRIPOS>ATOM
      1 CA         29.2874  -45.4415  -48.2773 C.3       0 UNK        -0.1968 
      2 C          30.3758  -45.5342  -49.3369 C.2       0 UNK         0.4852 
      3 O          31.5275  -45.1930  -49.0612 O.2       0 UNK        -0.5359 
      4 N          30.0175  -45.9834  -50.5463 N.am      1 UNK        -0.4300 
      5 CA         30.9340  -46.1818  -51.6746 C.3       1 UNK         0.0863 
      6 C6         30.1801  -46.3035  -53.0229 C.3       11 UNK        -0.0953 
      7 S7         29.0400  -44.9149  -53.3439 S.3       11 UNK        -0.2369 
      8 C8         30.1714  -43.6279  -53.9622 C.3       11 UNK         0.0226 
      9 C9         30.5828  -43.8734  -55.4055 C.ar      11 UNK        -0.0699 
     10 C10        31.8535  -44.3691  -55.7129 C.ar      11 UNK        -0.0804 
     11 C11        32.2195  -44.6129  -57.0426 C.ar      11 UNK        -0.0871 
     12 C12        31.3128  -44.3198  -58.0671 C.ar      11 UNK        -0.1008 
     13 C13        30.0462  -43.8084  -57.7720 C.ar      11 UNK        -0.0735 
     14 C14        29.6865  -43.5932  -56.4390 C.ar      11 UNK        -0.0945 
     15 C15        29.0496  -43.5215  -58.8841 C.3       11 UNK         0.0169 
     16 S16        28.6438  -41.7492  -58.9881 S.3       11 UNK        -0.2669 
     17 C17        26.9238  -41.8372  -59.5961 C.3       11 UNK        -0.0850 
     18 CA         25.8680  -41.6642  -58.4697 C.3       10 UNK         0.0855 
     19 C          24.4294  -41.7162  -59.0640 C.2       10 UNK         0.5543 
     20 N          23.6332  -42.7456  -58.7953 N.am      10 UNK        -0.7343 
     21 O          24.0317  -40.8028  -59.7827 O.2       10 UNK        -0.5027 
     22 N          26.0891  -42.5985  -57.3538 N.am      10 UNK        -0.4495 
     23 C          25.5556  -42.4814  -56.1317 C.2       10 UNK         0.4903 
     24 O          24.9088  -41.4988  -55.7661 O.2       10 UNK        -0.4860 
     25 CA         25.7833  -43.6519  -55.1480 C.3       9 UNK         0.0227 
     26 CB         24.5763  -43.8578  -54.2094 C.3       9 UNK        -0.1964 
     27 N          26.1578  -44.9351  -55.7662 N.am      9 UNK        -0.4231 
     28 C          25.4830  -45.6227  -56.7033 C.2       9 UNK         0.5014 
     29 O          24.4672  -45.2106  -57.2659 O.2       9 UNK        -0.5270 
     30 CA         26.0513  -46.9971  -57.0921 C.3       8 UNK         0.0284 
     31 CB         27.1059  -46.8586  -58.2019 C.3       8 UNK        -0.1977 
     32 N          26.6431  -47.7055  -55.9572 N.am      8 UNK        -0.4342 
     33 C          25.9652  -48.2736  -54.9538 C.2       8 UNK         0.5039 
     34 O          24.7344  -48.2954  -54.8926 O.2       8 UNK        -0.5547 
     35 CA         26.8102  -48.9362  -53.8432 C.3       7 UNK         0.0281 
     36 CB         25.9439  -49.5891  -52.7496 C.3       7 UNK        -0.1963 
     37 N          27.7659  -49.9322  -54.3480 N.am      7 UNK        -0.4444 
     38 C          28.8932  -49.6603  -55.0181 C.2       7 UNK         0.5104 
     39 O          29.2248  -48.5132  -55.3293 O.2       7 UNK        -0.5100 
     40 CA         29.7883  -50.8627  -55.3784 C.3       6 UNK         0.0396 
     41 CB         29.0982  -51.8355  -56.3574 C.3       6 UNK        -0.1801 
     42 N          31.1002  -50.4167  -55.8619 N.am      6 UNK        -0.4747 
     43 C          31.4047  -49.8424  -57.0382 C.2       6 UNK         0.5012 
     44 O          30.6824  -49.8471  -58.0359 O.2       6 UNK        -0.5003 
     45 CA         32.7411  -49.0813  -57.0773 C.3       5 UNK         0.0782 
     46 C46        32.5350  -47.6929  -56.4236 C.3       11 UNK        -0.0868 
     47 S47        34.0376  -46.6581  -56.3626 S.3       11 UNK        -0.2515 
     48 C48        33.5789  -45.2175  -57.3908 C.3       11 UNK         0.0199 
     49 N          33.7908  -49.8618  -56.4202 N.am      5 UNK        -0.4607 
     50 C          34.5240  -50.8062  -57.0229 C.2       4 UNK         0.5031 
     51 O          34.4374  -51.0773  -58.2208 O.2       4 UNK        -0.5119 
     52 CA         35.5302  -51.5807  -56.1508 C.3       4 UNK         0.0263 
     53 CB         36.9191  -50.9263  -56.2296 C.3       4 UNK        -0.1967 
     54 N          35.1212  -51.6733  -54.7475 N.am      4 UNK        -0.4237 
     55 C          34.1019  -52.4192  -54.2967 C.2       3 UNK         0.4908 
     56 O          33.4584  -53.1975  -55.0007 O.2       3 UNK        -0.5102 
     57 CA         33.7149  -52.2505  -52.8146 C.3       3 UNK         0.0241 
     58 CB         34.3808  -53.3396  -51.9580 C.3       3 UNK        -0.1971 
     59 N          34.0307  -50.9291  -52.2539 N.am      3 UNK        -0.4139 
     60 C          33.5187  -49.7710  -52.6930 C.2       2 UNK         0.5016 
     61 O          32.7520  -49.6868  -53.6544 O.2       2 UNK        -0.5319 
     62 CA         34.0055  -48.4923  -51.9914 C.3       2 UNK         0.0286 
     63 CB         35.3201  -48.0113  -52.6282 C.3       2 UNK        -0.1963 
     64 N          33.0231  -47.4067  -52.0636 N.am      2 UNK        -0.4790 
     65 C          31.8358  -47.4132  -51.4428 C.2       1 UNK         0.5024 
     66 O          31.4468  -48.3386  -50.7240 O.2       1 UNK        -0.4888 
     67 H67        29.5379  -46.0743  -47.4263 H         1 UNK         0.0892 
     68 H68        29.1941  -44.4150  -47.9238 H         1 UNK         0.0892 
     69 H69        28.3170  -45.7571  -48.6603 H         1 UNK         0.0892 
     70 H70        29.0605  -46.2574  -50.7132 H         1 UNK         0.3107 
     71 H71        31.5833  -45.3055  -51.7267 H         1 UNK         0.0773 
     72 H72        30.8777  -46.3871  -53.8573 H         1 UNK         0.0680 
     73 H73        29.5897  -47.2202  -53.0351 H         1 UNK         0.0680 
     74 H74        31.0451  -43.5587  -53.3132 H         1 UNK         0.0650 
     75 H75        29.6678  -42.6625  -53.8940 H         1 UNK         0.0650 
     76 H76        32.5507  -44.5891  -54.9165 H         1 UNK         0.1397 
     77 H77        31.5876  -44.5030  -59.0970 H         1 UNK         0.1363 
     78 H78        28.7073  -43.2014  -56.2040 H         1 UNK         0.1355 
     79 H79        28.1476  -44.1017  -58.6943 H         1 UNK         0.0707 
     80 H80        29.4300  -43.8548  -59.8510 H         1 UNK         0.0707 
     81 H81        26.8021  -41.0498  -60.3428 H         1 UNK         0.1034 
     82 H82        26.7695  -42.7755  -60.1326 H         1 UNK         0.1034 
     83 H83        25.9906  -40.6569  -58.0667 H         1 UNK         0.0482 
     84 H84        23.9528  -43.5145  -58.2148 H         1 UNK         0.3460 
     85 H85        22.7043  -42.7651  -59.1847 H         1 UNK         0.3460 
     86 H86        26.5875  -43.4448  -57.5746 H         1 UNK         0.2989 
     87 H87        26.6322  -43.3564  -54.5305 H         1 UNK         0.0559 
     88 H88        24.3652  -42.9571  -53.6317 H         1 UNK         0.0848 
     89 H89        23.6725  -44.1074  -54.7663 H         1 UNK         0.0848 
     90 H90        24.7618  -44.6601  -53.4953 H         1 UNK         0.0848 
     91 H91        26.9919  -45.3659  -55.3904 H         1 UNK         0.3144 
     92 H92        25.2249  -47.5978  -57.4782 H         1 UNK         0.0727 
     93 H93        27.4145  -47.8358  -58.5742 H         1 UNK         0.0790 
     94 H94        28.0004  -46.3444  -57.8484 H         1 UNK         0.0790 
     95 H95        26.7131  -46.2989  -59.0521 H         1 UNK         0.0790 
     96 H96        27.6592  -47.7828  -55.9239 H         1 UNK         0.3215 
     97 H97        27.3771  -48.1325  -53.3690 H         1 UNK         0.0863 
     98 H98        25.2575  -48.8644  -52.3091 H         1 UNK         0.0808 
     99 H99        25.3427  -50.4082  -53.1462 H         1 UNK         0.0808 
    100 H100       26.5567  -49.9826  -51.9384 H         1 UNK         0.0808 
    101 H101       27.5449  -50.8980  -54.1527 H         1 UNK         0.3118 
    102 H102       29.9890  -51.4013  -54.4511 H         1 UNK         0.0546 
    103 H103       28.2515  -52.3334  -55.8843 H         1 UNK         0.0828 
    104 H104       29.7833  -52.6150  -56.6908 H         1 UNK         0.0828 
    105 H105       28.7140  -51.3248  -57.2408 H         1 UNK         0.0828 
    106 H106       31.7741  -50.2677  -55.1125 H         1 UNK         0.3005 
    107 H107       33.0090  -48.9283  -58.1254 H         1 UNK         0.1257 
    108 H108       32.1784  -47.7958  -55.3974 H         1 UNK         0.0775 
    109 H109       31.7406  -47.1640  -56.9519 H         1 UNK         0.0775 
    110 H110       34.3449  -44.4488  -57.2820 H         1 UNK         0.0840 
    111 H111       33.6026  -45.5286  -58.4363 H         1 UNK         0.0840 
    112 H112       33.8754  -49.7264  -55.4210 H         1 UNK         0.2987 
    113 H113       35.6045  -52.5936  -56.5528 H         1 UNK         0.0785 
    114 H114       37.2646  -50.8694  -57.2629 H         1 UNK         0.0798 
    115 H115       37.6611  -51.4995  -55.6733 H         1 UNK         0.0798 
    116 H116       36.9108  -49.9099  -55.8332 H         1 UNK         0.0798 
    117 H117       35.6079  -51.0822  -54.0902 H         1 UNK         0.3079 
    118 H118       32.6322  -52.3803  -52.7508 H         1 UNK         0.0794 
    119 H119       34.1412  -54.3347  -52.3361 H         1 UNK         0.0786 
    120 H120       34.0372  -53.2980  -50.9242 H         1 UNK         0.0786 
    121 H121       35.4675  -53.2450  -51.9563 H         1 UNK         0.0786 
    122 H122       34.6681  -50.9146  -51.4701 H         1 UNK         0.3032 
    123 H123       34.1817  -48.7190  -50.9373 H         1 UNK         0.1094 
    124 H124       35.6990  -47.1182  -52.1307 H         1 UNK         0.0794 
    125 H125       36.0976  -48.7726  -52.5532 H         1 UNK         0.0794 
    126 H126       35.1946  -47.7773  -53.6863 H         1 UNK         0.0794 
    127 H127       33.2562  -46.6321  -52.6673 H         1 UNK         0.3016 
@<TRIPOS>BOND
     1    1    2 1    
     2    1   67 1    
     3    1   68 1    
     4    1   69 1    
     5    2    3 2    
     6    2    4 am   BACKBONE|DICT|INTERRES
     7    4    5 1    
     8    4   70 1    
     9    5    6 1    
    10    5   65 1    
    11    5   71 1    
    12    6    7 1    
    13    6   72 1    
    14    6   73 1    
    15    7    8 1    
    16    8    9 1    
    17    8   74 1    
    18    8   75 1    
    19    9   10 ar   
    20    9   14 ar   
    21   10   11 ar   
    22   10   76 1    
    23   11   12 ar   
    24   11   48 1    
    25   12   13 ar   
    26   12   77 1    
    27   13   14 ar   
    28   13   15 1    
    29   14   78 1    
    30   15   16 1    
    31   15   79 1    
    32   15   80 1    
    33   16   17 1    
    34   17   18 1    
    35   17   81 1    
    36   17   82 1    
    37   18   19 1    
    38   18   22 1    
    39   18   83 1    
    40   19   20 am   BACKBONE|DICT|INTERRES
    41   19   21 2    
    42   20   84 1    
    43   20   85 1    
    44   22   23 am   BACKBONE|DICT|INTERRES
    45   22   86 1    
    46   23   24 2    
    47   23   25 1    
    48   25   26 1    
    49   25   27 1    
    50   25   87 1    
    51   26   88 1    
    52   26   89 1    
    53   26   90 1    
    54   27   28 am   BACKBONE|DICT|INTERRES
    55   27   91 1    
    56   28   29 2    
    57   28   30 1    
    58   30   31 1    
    59   30   32 1    
    60   30   92 1    
    61   31   93 1    
    62   31   94 1    
    63   31   95 1    
    64   32   33 am   BACKBONE|DICT|INTERRES
    65   32   96 1    
    66   33   34 2    
    67   33   35 1    
    68   35   36 1    
    69   35   37 1    
    70   35   97 1    
    71   36   98 1    
    72   36   99 1    
    73   36  100 1    
    74   37   38 am   BACKBONE|DICT|INTERRES
    75   37  101 1    
    76   38   39 2    
    77   38   40 1    
    78   40   41 1    
    79   40   42 1    
    80   40  102 1    
    81   41  103 1    
    82   41  104 1    
    83   41  105 1    
    84   42   43 am   BACKBONE|DICT|INTERRES
    85   42  106 1    
    86   43   44 2    
    87   43   45 1    
    88   45   46 1    
    89   45   49 1    
    90   45  107 1    
    91   46   47 1    
    92   46  108 1    
    93   46  109 1    
    94   47   48 1    
    95   48  110 1    
    96   48  111 1    
    97   49   50 am   BACKBONE|DICT|INTERRES
    98   49  112 1    
    99   50   51 2    
   100   50   52 1    
   101   52   53 1    
   102   52   54 1    
   103   52  113 1    
   104   53  114 1    
   105   53  115 1    
   106   53  116 1    
   107   54   55 am   BACKBONE|DICT|INTERRES
   108   54  117 1    
   109   55   56 2    
   110   55   57 1    
   111   57   58 1    
   112   57   59 1    
   113   57  118 1    
   114   58  119 1    
   115   58  120 1    
   116   58  121 1    
   117   59   60 am   BACKBONE|DICT|INTERRES
   118   59  122 1    
   119   60   61 2    
   120   60   62 1    
   121   62   63 1    
   122   62   64 1    
   123   62  123 1    
   124   63  124 1    
   125   63  125 1    
   126   63  126 1    
   127   64   65 am   BACKBONE|DICT|INTERRES
   128   64  127 1    
   129   65   66 2    
@<TRIPOS>SUBSTRUCTURE
     1 UNK         1 GROUP             0       ****    0 ROOT    
