@<TRIPOS>MOLECULE
3R134
127   129    1
SMALL
USER_CHARGES


@<TRIPOS>ATOM
      1 CA         36.2550  -45.7468  -53.5561 C.3       0 UNK        -0.1968 
      2 C          35.1170  -45.0456  -52.8287 C.2       0 UNK         0.4852 
      3 O          35.2552  -44.7381  -51.6442 O.2       0 UNK        -0.5359 
      4 N          34.0043  -44.7977  -53.5352 N.am      1 UNK        -0.4300 
      5 CA         32.7769  -44.1464  -53.0495 C.3       1 UNK         0.0863 
      6 C6         32.9493  -42.6426  -52.7022 C.3       11 UNK        -0.0953 
      7 S7         33.7315  -41.6760  -54.0391 S.3       11 UNK        -0.2369 
      8 C8         32.3002  -41.1866  -55.0628 C.3       11 UNK         0.0226 
      9 C9         31.7186  -42.3023  -55.9330 C.ar      11 UNK        -0.0699 
     10 C10        32.5266  -43.3004  -56.4936 C.ar      11 UNK        -0.0804 
     11 C11        31.9754  -44.3011  -57.3008 C.ar      11 UNK        -0.0871 
     12 C12        30.6075  -44.2732  -57.5869 C.ar      11 UNK        -0.1008 
     13 C13        29.7946  -43.2585  -57.0735 C.ar      11 UNK        -0.0735 
     14 C14        30.3525  -42.2898  -56.2331 C.ar      11 UNK        -0.0945 
     15 C15        28.3300  -43.1678  -57.4835 C.3       11 UNK         0.0169 
     16 S16        27.3155  -44.5115  -56.7975 S.3       11 UNK        -0.2669 
     17 C17        27.4021  -44.1740  -55.0043 C.3       11 UNK        -0.0850 
     18 CA         28.2782  -45.2185  -54.2514 C.3       10 UNK         0.0855 
     19 C          28.4914  -44.8519  -52.7513 C.2       10 UNK         0.5543 
     20 N          28.8917  -43.6198  -52.4633 N.am      10 UNK        -0.7343 
     21 O          28.3436  -45.6667  -51.8440 O.2       10 UNK        -0.5027 
     22 N          27.8094  -46.5920  -54.5033 N.am      10 UNK        -0.4495 
     23 C          26.6526  -47.1313  -54.0983 C.2       10 UNK         0.4903 
     24 O          25.8591  -46.6016  -53.3183 O.2       10 UNK        -0.4860 
     25 CA         26.2878  -48.4517  -54.7909 C.3       9 UNK         0.0227 
     26 CB         25.3631  -49.3603  -53.9523 C.3       9 UNK        -0.1964 
     27 N          25.7429  -48.1490  -56.1202 N.am      9 UNK        -0.4231 
     28 C          24.5711  -47.5653  -56.4285 C.2       9 UNK         0.5014 
     29 O          23.6651  -47.3680  -55.6178 O.2       9 UNK        -0.5270 
     30 CA         24.3620  -47.0997  -57.8854 C.3       8 UNK         0.0284 
     31 CB         23.7566  -45.6844  -57.9417 C.3       8 UNK        -0.1977 
     32 N          25.6023  -47.1073  -58.6651 N.am      8 UNK        -0.4342 
     33 C          26.0040  -48.1090  -59.4556 C.2       8 UNK         0.5039 
     34 O          25.3474  -49.1334  -59.6494 O.2       8 UNK        -0.5547 
     35 CA         27.3891  -47.9822  -60.1180 C.3       7 UNK         0.0281 
     36 CB         28.0153  -46.5698  -60.0409 C.3       7 UNK        -0.1963 
     37 N          28.3063  -48.9928  -59.5800 N.am      7 UNK        -0.4444 
     38 C          28.6804  -49.1345  -58.2996 C.2       7 UNK         0.5104 
     39 O          28.3382  -48.3666  -57.3966 O.2       7 UNK        -0.5100 
     40 CA         29.5494  -50.3544  -57.9408 C.3       6 UNK         0.0396 
     41 CB         30.0366  -51.1890  -59.1480 C.3       6 UNK        -0.1801 
     42 N          30.6643  -49.9660  -57.0757 N.am      6 UNK        -0.4747 
     43 C          31.6910  -49.1550  -57.3841 C.2       6 UNK         0.5012 
     44 O          31.8724  -48.6844  -58.5073 O.2       6 UNK        -0.5003 
     45 CA         32.6904  -48.8127  -56.2548 C.3       5 UNK         0.0782 
     46 C46        32.6135  -47.3116  -55.8557 C.3       11 UNK        -0.0868 
     47 S47        33.8600  -46.2841  -56.6979 S.3       11 UNK        -0.2515 
     48 C48        32.8640  -45.3721  -57.9232 C.3       11 UNK         0.0199 
     49 N          32.5128  -49.6825  -55.0854 N.am      5 UNK        -0.4607 
     50 C          32.9504  -50.9477  -54.9975 C.2       4 UNK         0.5031 
     51 O          33.6357  -51.4867  -55.8665 O.2       4 UNK        -0.5119 
     52 CA         32.5595  -51.7639  -53.7477 C.3       4 UNK         0.0263 
     53 CB         33.7691  -51.9158  -52.8105 C.3       4 UNK        -0.1967 
     54 N          31.4388  -51.2045  -52.9860 N.am      4 UNK        -0.4237 
     55 C          30.1723  -51.1040  -53.4169 C.2       3 UNK         0.4908 
     56 O          29.7817  -51.5351  -54.5016 O.2       3 UNK        -0.5102 
     57 CA         29.1968  -50.3203  -52.5149 C.3       3 UNK         0.0241 
     58 CB         28.4673  -51.2675  -51.5500 C.3       3 UNK        -0.1971 
     59 N          29.8329  -49.2323  -51.7561 N.am      3 UNK        -0.4139 
     60 C          30.5109  -48.2214  -52.3175 C.2       2 UNK         0.5016 
     61 O          30.6415  -48.0934  -53.5391 O.2       2 UNK        -0.5319 
     62 CA         31.2199  -47.2356  -51.3777 C.3       2 UNK         0.0286 
     63 CB         32.2819  -47.9380  -50.5105 C.3       2 UNK        -0.1963 
     64 N          31.8712  -46.2385  -52.2177 N.am      2 UNK        -0.4790 
     65 C          32.1225  -44.9632  -51.9144 C.2       1 UNK         0.5024 
     66 O          31.8747  -44.4533  -50.8200 O.2       1 UNK        -0.4888 
     67 H67        36.4203  -46.7352  -53.1283 H         1 UNK         0.0892 
     68 H68        37.1754  -45.1724  -53.4540 H         1 UNK         0.0892 
     69 H69        36.0507  -45.8666  -54.6195 H         1 UNK         0.0892 
     70 H70        33.9798  -45.0793  -54.5062 H         1 UNK         0.3107 
     71 H71        32.0665  -44.2011  -53.8746 H         1 UNK         0.0773 
     72 H72        31.9844  -42.1937  -52.4600 H         1 UNK         0.0680 
     73 H73        33.5679  -42.5283  -51.8105 H         1 UNK         0.0680 
     74 H74        31.5312  -40.7689  -54.4111 H         1 UNK         0.0650 
     75 H75        32.6159  -40.3770  -55.7217 H         1 UNK         0.0650 
     76 H76        33.5912  -43.3017  -56.3067 H         1 UNK         0.1397 
     77 H77        30.1762  -45.0229  -58.2359 H         1 UNK         0.1363 
     78 H78        29.7272  -41.4995  -55.8405 H         1 UNK         0.1355 
     79 H79        27.8996  -42.2090  -57.1900 H         1 UNK         0.0707 
     80 H80        28.2656  -43.2064  -58.5718 H         1 UNK         0.0707 
     81 H81        26.3860  -44.1747  -54.6061 H         1 UNK         0.1034 
     82 H82        27.7752  -43.1603  -54.8573 H         1 UNK         0.1034 
     83 H83        29.2784  -45.1881  -54.6863 H         1 UNK         0.0482 
     84 H84        29.0375  -42.9282  -53.1796 H         1 UNK         0.3460 
     85 H85        29.0501  -43.3804  -51.4970 H         1 UNK         0.3460 
     86 H86        28.3794  -47.1225  -55.1483 H         1 UNK         0.2989 
     87 H87        27.2120  -49.0051  -54.9632 H         1 UNK         0.0559 
     88 H88        24.4309  -48.8670  -53.6773 H         1 UNK         0.0848 
     89 H89        25.8533  -49.6519  -53.0229 H         1 UNK         0.0848 
     90 H90        25.1132  -50.2748  -54.4896 H         1 UNK         0.0848 
     91 H91        26.4334  -48.2179  -56.8622 H         1 UNK         0.3144 
     92 H92        23.6404  -47.7853  -58.3346 H         1 UNK         0.0727 
     93 H93        22.7807  -45.6545  -57.4554 H         1 UNK         0.0790 
     94 H94        23.6110  -45.3551  -58.9707 H         1 UNK         0.0790 
     95 H95        24.3909  -44.9525  -57.4410 H         1 UNK         0.0790 
     96 H96        26.2299  -46.3276  -58.5174 H         1 UNK         0.3215 
     97 H97        27.2434  -48.2188  -61.1733 H         1 UNK         0.0863 
     98 H98        28.9455  -46.5275  -60.6077 H         1 UNK         0.0808 
     99 H99        28.2471  -46.2718  -59.0191 H         1 UNK         0.0808 
    100 H100       27.3499  -45.8170  -60.4657 H         1 UNK         0.0808 
    101 H101       28.6163  -49.6931  -60.2386 H         1 UNK         0.3118 
    102 H102       28.9159  -51.0019  -57.3330 H         1 UNK         0.0546 
    103 H103       29.1978  -51.6209  -59.6950 H         1 UNK         0.0828 
    104 H104       30.6586  -52.0216  -58.8191 H         1 UNK         0.0828 
    105 H105       30.6252  -50.5989  -59.8513 H         1 UNK         0.0828 
    106 H106       30.5885  -50.2905  -56.1188 H         1 UNK         0.3005 
    107 H107       33.6857  -49.0163  -56.6572 H         1 UNK         0.1257 
    108 H108       32.8299  -47.2027  -54.7937 H         1 UNK         0.0775 
    109 H109       31.6119  -46.8960  -55.9900 H         1 UNK         0.0775 
    110 H110       33.5410  -44.8904  -58.6299 H         1 UNK         0.0840 
    111 H111       32.2737  -46.0804  -58.5055 H         1 UNK         0.0840 
    112 H112       31.9159  -49.3071  -54.3547 H         1 UNK         0.2987 
    113 H113       32.2643  -52.7572  -54.0923 H         1 UNK         0.0785 
    114 H114       34.6150  -52.3647  -53.3334 H         1 UNK         0.0798 
    115 H115       33.5374  -52.5612  -51.9630 H         1 UNK         0.0798 
    116 H116       34.1017  -50.9528  -52.4206 H         1 UNK         0.0798 
    117 H117       31.6598  -50.8213  -52.0789 H         1 UNK         0.3079 
    118 H118       28.4535  -49.8640  -53.1691 H         1 UNK         0.0794 
    119 H119       29.1543  -51.7330  -50.8421 H         1 UNK         0.0786 
    120 H120       27.9672  -52.0696  -52.0951 H         1 UNK         0.0786 
    121 H121       27.7014  -50.7410  -50.9800 H         1 UNK         0.0786 
    122 H122       29.7601  -49.2755  -50.7495 H         1 UNK         0.3032 
    123 H123       30.4717  -46.7571  -50.7423 H         1 UNK         0.1094 
    124 H124       33.0156  -48.4667  -51.1205 H         1 UNK         0.0794 
    125 H125       32.8221  -47.2205  -49.8923 H         1 UNK         0.0794 
    126 H126       31.8299  -48.6637  -49.8337 H         1 UNK         0.0794 
    127 H127       32.0198  -46.5601  -53.1651 H         1 UNK         0.3016 
@<TRIPOS>BOND
     1    1    2 1    
     2    1   67 1    
     3    1   68 1    
     4    1   69 1    
     5    2    3 2    
     6    2    4 am   BACKBONE|DICT|INTERRES
     7    4    5 1    
     8    4   70 1    
     9    5    6 1    
    10    5   65 1    
    11    5   71 1    
    12    6    7 1    
    13    6   72 1    
    14    6   73 1    
    15    7    8 1    
    16    8    9 1    
    17    8   74 1    
    18    8   75 1    
    19    9   10 ar   
    20    9   14 ar   
    21   10   11 ar   
    22   10   76 1    
    23   11   12 ar   
    24   11   48 1    
    25   12   13 ar   
    26   12   77 1    
    27   13   14 ar   
    28   13   15 1    
    29   14   78 1    
    30   15   16 1    
    31   15   79 1    
    32   15   80 1    
    33   16   17 1    
    34   17   18 1    
    35   17   81 1    
    36   17   82 1    
    37   18   19 1    
    38   18   22 1    
    39   18   83 1    
    40   19   20 am   BACKBONE|DICT|INTERRES
    41   19   21 2    
    42   20   84 1    
    43   20   85 1    
    44   22   23 am   BACKBONE|DICT|INTERRES
    45   22   86 1    
    46   23   24 2    
    47   23   25 1    
    48   25   26 1    
    49   25   27 1    
    50   25   87 1    
    51   26   88 1    
    52   26   89 1    
    53   26   90 1    
    54   27   28 am   BACKBONE|DICT|INTERRES
    55   27   91 1    
    56   28   29 2    
    57   28   30 1    
    58   30   31 1    
    59   30   32 1    
    60   30   92 1    
    61   31   93 1    
    62   31   94 1    
    63   31   95 1    
    64   32   33 am   BACKBONE|DICT|INTERRES
    65   32   96 1    
    66   33   34 2    
    67   33   35 1    
    68   35   36 1    
    69   35   37 1    
    70   35   97 1    
    71   36   98 1    
    72   36   99 1    
    73   36  100 1    
    74   37   38 am   BACKBONE|DICT|INTERRES
    75   37  101 1    
    76   38   39 2    
    77   38   40 1    
    78   40   41 1    
    79   40   42 1    
    80   40  102 1    
    81   41  103 1    
    82   41  104 1    
    83   41  105 1    
    84   42   43 am   BACKBONE|DICT|INTERRES
    85   42  106 1    
    86   43   44 2    
    87   43   45 1    
    88   45   46 1    
    89   45   49 1    
    90   45  107 1    
    91   46   47 1    
    92   46  108 1    
    93   46  109 1    
    94   47   48 1    
    95   48  110 1    
    96   48  111 1    
    97   49   50 am   BACKBONE|DICT|INTERRES
    98   49  112 1    
    99   50   51 2    
   100   50   52 1    
   101   52   53 1    
   102   52   54 1    
   103   52  113 1    
   104   53  114 1    
   105   53  115 1    
   106   53  116 1    
   107   54   55 am   BACKBONE|DICT|INTERRES
   108   54  117 1    
   109   55   56 2    
   110   55   57 1    
   111   57   58 1    
   112   57   59 1    
   113   57  118 1    
   114   58  119 1    
   115   58  120 1    
   116   58  121 1    
   117   59   60 am   BACKBONE|DICT|INTERRES
   118   59  122 1    
   119   60   61 2    
   120   60   62 1    
   121   62   63 1    
   122   62   64 1    
   123   62  123 1    
   124   63  124 1    
   125   63  125 1    
   126   63  126 1    
   127   64   65 am   BACKBONE|DICT|INTERRES
   128   64  127 1    
   129   65   66 2    
@<TRIPOS>SUBSTRUCTURE
     1 UNK         1 GROUP             0       ****    0 ROOT    
