@<TRIPOS>MOLECULE
3R134
127   129    1
SMALL
USER_CHARGES


@<TRIPOS>ATOM
      1 CA         36.5343  -45.9729  -56.3158 C.3       0 UNK        -0.1968 
      2 C          36.2021  -45.5132  -54.9036 C.2       0 UNK         0.4852 
      3 O          37.0950  -45.4663  -54.0570 O.2       0 UNK        -0.5359 
      4 N          34.9286  -45.1740  -54.6555 N.am      1 UNK        -0.4300 
      5 CA         34.3741  -44.7353  -53.3682 C.3       1 UNK         0.0863 
      6 C6         34.9135  -43.3452  -52.9328 C.3       11 UNK        -0.0953 
      7 S7         33.7158  -42.4006  -51.9323 S.3       11 UNK        -0.2369 
      8 C8         32.7623  -41.5151  -53.2118 C.3       11 UNK         0.0226 
      9 C9         31.7274  -42.4203  -53.8654 C.ar      11 UNK        -0.0699 
     10 C10        31.9489  -42.9594  -55.1382 C.ar      11 UNK        -0.0804 
     11 C11        31.0202  -43.8388  -55.7054 C.ar      11 UNK        -0.0871 
     12 C12        29.8543  -44.1539  -55.0027 C.ar      11 UNK        -0.1008 
     13 C13        29.6024  -43.5878  -53.7506 C.ar      11 UNK        -0.0735 
     14 C14        30.5463  -42.7286  -53.1831 C.ar      11 UNK        -0.0945 
     15 C15        28.3140  -43.9133  -53.0093 C.3       11 UNK         0.0169 
     16 S16        27.0170  -42.6552  -53.2625 S.3       11 UNK        -0.2669 
     17 C17        26.7398  -42.7061  -55.0682 C.3       11 UNK        -0.0850 
     18 CA         25.8806  -43.9184  -55.5247 C.3       10 UNK         0.0855 
     19 C          24.3610  -43.5963  -55.4479 C.2       10 UNK         0.5543 
     20 N          23.7233  -43.8666  -54.3175 N.am      10 UNK        -0.7343 
     21 O          23.7714  -43.0647  -56.3871 O.2       10 UNK        -0.5027 
     22 N          26.3119  -44.3912  -56.8503 N.am      10 UNK        -0.4495 
     23 C          25.8668  -45.4960  -57.4644 C.2       10 UNK         0.4903 
     24 O          25.0461  -46.2693  -56.9722 O.2       10 UNK        -0.4860 
     25 CA         26.4129  -45.7989  -58.8686 C.3       9 UNK         0.0227 
     26 CB         27.4251  -44.7649  -59.4068 C.3       9 UNK        -0.1964 
     27 N          27.0330  -47.1213  -58.8526 N.am      9 UNK        -0.4231 
     28 C          26.9110  -48.0517  -59.8055 C.2       9 UNK         0.5014 
     29 O          26.2358  -47.9077  -60.8264 O.2       9 UNK        -0.5270 
     30 CA         27.6920  -49.3624  -59.6039 C.3       8 UNK         0.0284 
     31 CB         29.1563  -49.1850  -60.0384 C.3       8 UNK        -0.1977 
     32 N          27.6487  -49.8712  -58.2302 N.am      8 UNK        -0.4342 
     33 C          26.5587  -50.3832  -57.6394 C.2       8 UNK         0.5039 
     34 O          25.4625  -50.4839  -58.1918 O.2       8 UNK        -0.5547 
     35 CA         26.7179  -50.8793  -56.1919 C.3       7 UNK         0.0281 
     36 CB         27.3706  -52.2709  -56.1552 C.3       7 UNK        -0.1963 
     37 N          27.4964  -49.9429  -55.3814 N.am      7 UNK        -0.4444 
     38 C          27.0141  -48.7946  -54.8887 C.2       7 UNK         0.5104 
     39 O          25.8247  -48.4847  -54.9289 O.2       7 UNK        -0.5100 
     40 CA         28.0170  -47.8176  -54.2478 C.3       6 UNK         0.0396 
     41 CB         28.0323  -47.9694  -52.7196 C.3       6 UNK        -0.1801 
     42 N          29.3828  -47.9504  -54.7593 N.am      6 UNK        -0.4747 
     43 C          29.7643  -47.6609  -56.0115 C.2       6 UNK         0.5012 
     44 O          29.0062  -47.2175  -56.8723 O.2       6 UNK        -0.5003 
     45 CA         31.2309  -47.9678  -56.3654 C.3       5 UNK         0.0782 
     46 C46        32.1836  -46.8555  -55.8526 C.3       11 UNK        -0.0868 
     47 S47        32.6369  -45.6295  -57.1230 S.3       11 UNK        -0.2515 
     48 C48        31.2573  -44.4391  -57.0843 C.3       11 UNK         0.0199 
     49 N          31.6153  -49.2852  -55.8516 N.am      5 UNK        -0.4607 
     50 C          31.1376  -50.4539  -56.2968 C.2       4 UNK         0.5031 
     51 O          30.3432  -50.5533  -57.2309 O.2       4 UNK        -0.5119 
     52 CA         31.5886  -51.7161  -55.5405 C.3       4 UNK         0.0263 
     53 CB         32.9229  -52.2315  -56.1019 C.3       4 UNK        -0.1967 
     54 N          31.7146  -51.4967  -54.0951 N.am      4 UNK        -0.4237 
     55 C          30.6782  -51.2521  -53.2797 C.2       3 UNK         0.4908 
     56 O          29.5066  -51.2464  -53.6537 O.2       3 UNK        -0.5102 
     57 CA         30.9974  -50.9102  -51.8119 C.3       3 UNK         0.0241 
     58 CB         31.1008  -52.1940  -50.9731 C.3       3 UNK        -0.1971 
     59 N          32.2052  -50.0959  -51.6160 N.am      3 UNK        -0.4139 
     60 C          32.4431  -48.9124  -52.1986 C.2       2 UNK         0.5016 
     61 O          31.6828  -48.3929  -53.0223 O.2       2 UNK        -0.5319 
     62 CA         33.7576  -48.2047  -51.8343 C.3       2 UNK         0.0286 
     63 CB         34.9889  -49.0788  -52.1434 C.3       2 UNK        -0.1963 
     64 N          33.8311  -46.9769  -52.6175 N.am      2 UNK        -0.4790 
     65 C          34.4768  -45.8498  -52.3034 C.2       1 UNK         0.5024 
     66 O          35.1318  -45.6977  -51.2706 O.2       1 UNK        -0.4888 
     67 H67        35.6723  -45.9189  -56.9798 H         1 UNK         0.0892 
     68 H68        37.3231  -45.3501  -56.7369 H         1 UNK         0.0892 
     69 H69        36.8859  -47.0042  -56.3006 H         1 UNK         0.0892 
     70 H70        34.2593  -45.2306  -55.4128 H         1 UNK         0.3107 
     71 H71        33.3059  -44.6342  -53.5516 H         1 UNK         0.0773 
     72 H72        35.1557  -42.7442  -53.8105 H         1 UNK         0.0680 
     73 H73        35.8506  -43.4365  -52.3810 H         1 UNK         0.0680 
     74 H74        33.4380  -41.0897  -53.9553 H         1 UNK         0.0650 
     75 H75        32.2545  -40.6697  -52.7454 H         1 UNK         0.0650 
     76 H76        32.8550  -42.7168  -55.6767 H         1 UNK         0.1397 
     77 H77        29.1267  -44.8246  -55.4387 H         1 UNK         0.1363 
     78 H78        30.3648  -42.3032  -52.2054 H         1 UNK         0.1355 
     79 H79        28.5195  -43.9928  -51.9408 H         1 UNK         0.0707 
     80 H80        27.9348  -44.8879  -53.3115 H         1 UNK         0.0707 
     81 H81        26.2807  -41.7631  -55.3727 H         1 UNK         0.1034 
     82 H82        27.7102  -42.6993  -55.5618 H         1 UNK         0.1034 
     83 H83        26.0723  -44.7555  -54.8507 H         1 UNK         0.0482 
     84 H84        22.7417  -43.6502  -54.2425 H         1 UNK         0.3460 
     85 H85        24.2095  -44.2719  -53.5330 H         1 UNK         0.3460 
     86 H86        26.9501  -43.7933  -57.3522 H         1 UNK         0.2989 
     87 H87        25.5466  -45.8044  -59.5332 H         1 UNK         0.0559 
     88 H88        26.9876  -43.7672  -59.4600 H         1 UNK         0.0848 
     89 H89        27.7421  -45.0226  -60.4175 H         1 UNK         0.0848 
     90 H90        28.3217  -44.7119  -58.7886 H         1 UNK         0.0848 
     91 H91        27.6293  -47.3158  -58.0486 H         1 UNK         0.3144 
     92 H92        27.2394  -50.1171  -60.2507 H         1 UNK         0.0727 
     93 H93        29.7021  -50.1274  -59.9869 H         1 UNK         0.0790 
     94 H94        29.6786  -48.4614  -59.4116 H         1 UNK         0.0790 
     95 H95        29.2184  -48.8304  -61.0681 H         1 UNK         0.0790 
     96 H96        28.5310  -49.8940  -57.7273 H         1 UNK         0.3215 
     97 H97        25.7196  -50.9679  -55.7572 H         1 UNK         0.0863 
     98 H98        27.4472  -52.6449  -55.1340 H         1 UNK         0.0808 
     99 H99        28.3728  -52.2641  -56.5835 H         1 UNK         0.0808 
    100 H100       26.7798  -52.9918  -56.7217 H         1 UNK         0.0808 
    101 H101       28.4626  -50.1810  -55.1913 H         1 UNK         0.3118 
    102 H102       27.6728  -46.8117  -54.4916 H         1 UNK         0.0546 
    103 H103       28.3473  -48.9690  -52.4198 H         1 UNK         0.0828 
    104 H104       27.0390  -47.8013  -52.3015 H         1 UNK         0.0828 
    105 H105       28.7076  -47.2510  -52.2544 H         1 UNK         0.0828 
    106 H106       30.0920  -48.2748  -54.1056 H         1 UNK         0.3005 
    107 H107       31.2976  -48.0220  -57.4546 H         1 UNK         0.1257 
    108 H108       33.1290  -47.3038  -55.5441 H         1 UNK         0.0775 
    109 H109       31.8028  -46.3564  -54.9595 H         1 UNK         0.0775 
    110 H110       31.4691  -43.6351  -57.7905 H         1 UNK         0.0840 
    111 H111       30.3576  -44.9318  -57.4539 H         1 UNK         0.0840 
    112 H112       32.1831  -49.2879  -55.0164 H         1 UNK         0.2987 
    113 H113       30.8304  -52.4856  -55.7014 H         1 UNK         0.0785 
    114 H114       32.8469  -52.4201  -57.1738 H         1 UNK         0.0798 
    115 H115       33.2155  -53.1698  -55.6302 H         1 UNK         0.0798 
    116 H116       33.7309  -51.5139  -55.9538 H         1 UNK         0.0798 
    117 H117       32.6461  -51.4963  -53.7059 H         1 UNK         0.3079 
    118 H118       30.1570  -50.3268  -51.4310 H         1 UNK         0.0794 
    119 H119       31.2027  -51.9682  -49.9114 H         1 UNK         0.0786 
    120 H120       31.9540  -52.8049  -51.2708 H         1 UNK         0.0786 
    121 H121       30.2055  -52.8074  -51.0860 H         1 UNK         0.0786 
    122 H122       32.8822  -50.4532  -50.9572 H         1 UNK         0.3032 
    123 H123       33.7284  -47.9587  -50.7704 H         1 UNK         0.1094 
    124 H124       35.0142  -49.3840  -53.1904 H         1 UNK         0.0794 
    125 H125       35.9153  -48.5434  -51.9336 H         1 UNK         0.0794 
    126 H126       35.0025  -49.9838  -51.5354 H         1 UNK         0.0794 
    127 H127       33.2289  -46.9911  -53.4292 H         1 UNK         0.3016 
@<TRIPOS>BOND
     1    1    2 1    
     2    1   67 1    
     3    1   68 1    
     4    1   69 1    
     5    2    3 2    
     6    2    4 am   BACKBONE|DICT|INTERRES
     7    4    5 1    
     8    4   70 1    
     9    5    6 1    
    10    5   65 1    
    11    5   71 1    
    12    6    7 1    
    13    6   72 1    
    14    6   73 1    
    15    7    8 1    
    16    8    9 1    
    17    8   74 1    
    18    8   75 1    
    19    9   10 ar   
    20    9   14 ar   
    21   10   11 ar   
    22   10   76 1    
    23   11   12 ar   
    24   11   48 1    
    25   12   13 ar   
    26   12   77 1    
    27   13   14 ar   
    28   13   15 1    
    29   14   78 1    
    30   15   16 1    
    31   15   79 1    
    32   15   80 1    
    33   16   17 1    
    34   17   18 1    
    35   17   81 1    
    36   17   82 1    
    37   18   19 1    
    38   18   22 1    
    39   18   83 1    
    40   19   20 am   BACKBONE|DICT|INTERRES
    41   19   21 2    
    42   20   84 1    
    43   20   85 1    
    44   22   23 am   BACKBONE|DICT|INTERRES
    45   22   86 1    
    46   23   24 2    
    47   23   25 1    
    48   25   26 1    
    49   25   27 1    
    50   25   87 1    
    51   26   88 1    
    52   26   89 1    
    53   26   90 1    
    54   27   28 am   BACKBONE|DICT|INTERRES
    55   27   91 1    
    56   28   29 2    
    57   28   30 1    
    58   30   31 1    
    59   30   32 1    
    60   30   92 1    
    61   31   93 1    
    62   31   94 1    
    63   31   95 1    
    64   32   33 am   BACKBONE|DICT|INTERRES
    65   32   96 1    
    66   33   34 2    
    67   33   35 1    
    68   35   36 1    
    69   35   37 1    
    70   35   97 1    
    71   36   98 1    
    72   36   99 1    
    73   36  100 1    
    74   37   38 am   BACKBONE|DICT|INTERRES
    75   37  101 1    
    76   38   39 2    
    77   38   40 1    
    78   40   41 1    
    79   40   42 1    
    80   40  102 1    
    81   41  103 1    
    82   41  104 1    
    83   41  105 1    
    84   42   43 am   BACKBONE|DICT|INTERRES
    85   42  106 1    
    86   43   44 2    
    87   43   45 1    
    88   45   46 1    
    89   45   49 1    
    90   45  107 1    
    91   46   47 1    
    92   46  108 1    
    93   46  109 1    
    94   47   48 1    
    95   48  110 1    
    96   48  111 1    
    97   49   50 am   BACKBONE|DICT|INTERRES
    98   49  112 1    
    99   50   51 2    
   100   50   52 1    
   101   52   53 1    
   102   52   54 1    
   103   52  113 1    
   104   53  114 1    
   105   53  115 1    
   106   53  116 1    
   107   54   55 am   BACKBONE|DICT|INTERRES
   108   54  117 1    
   109   55   56 2    
   110   55   57 1    
   111   57   58 1    
   112   57   59 1    
   113   57  118 1    
   114   58  119 1    
   115   58  120 1    
   116   58  121 1    
   117   59   60 am   BACKBONE|DICT|INTERRES
   118   59  122 1    
   119   60   61 2    
   120   60   62 1    
   121   62   63 1    
   122   62   64 1    
   123   62  123 1    
   124   63  124 1    
   125   63  125 1    
   126   63  126 1    
   127   64   65 am   BACKBONE|DICT|INTERRES
   128   64  127 1    
   129   65   66 2    
@<TRIPOS>SUBSTRUCTURE
     1 UNK         1 GROUP             0       ****    0 ROOT    
