@<TRIPOS>MOLECULE
3R134
127   129    1
SMALL
USER_CHARGES


@<TRIPOS>ATOM
      1 CA         33.1781  -45.5169  -48.8522 C.3       0 UNK        -0.1968 
      2 C          33.3458  -45.9112  -50.3114 C.2       0 UNK         0.4852 
      3 O          33.3387  -47.1029  -50.6260 O.2       0 UNK        -0.5359 
      4 N          33.4810  -44.9238  -51.2101 N.am      1 UNK        -0.4300 
      5 CA         33.6642  -45.1322  -52.6526 C.3       1 UNK         0.0863 
      6 C6         34.0036  -43.8173  -53.4002 C.3       11 UNK        -0.0953 
      7 S7         35.0849  -44.1168  -54.8387 S.3       11 UNK        -0.2369 
      8 C8         34.3460  -43.0484  -56.1140 C.3       11 UNK         0.0226 
      9 C9         33.0598  -43.6247  -56.6901 C.ar      11 UNK        -0.0699 
     10 C10        33.1043  -44.7407  -57.5303 C.ar      11 UNK        -0.0804 
     11 C11        31.9341  -45.2513  -58.1018 C.ar      11 UNK        -0.0871 
     12 C12        30.7105  -44.6338  -57.8210 C.ar      11 UNK        -0.1008 
     13 C13        30.6479  -43.5187  -56.9780 C.ar      11 UNK        -0.0735 
     14 C14        31.8309  -43.0165  -56.4221 C.ar      11 UNK        -0.0945 
     15 C15        29.3055  -42.8352  -56.7327 C.3       11 UNK         0.0169 
     16 S16        29.0759  -42.2534  -55.0186 S.3       11 UNK        -0.2669 
     17 C17        27.4450  -41.4394  -55.1540 C.3       11 UNK        -0.0850 
     18 CA         26.3599  -42.0818  -54.2410 C.3       10 UNK         0.0855 
     19 C          25.0112  -41.2992  -54.2768 C.2       10 UNK         0.5543 
     20 N          23.8633  -41.9555  -54.1595 N.am      10 UNK        -0.7343 
     21 O          25.0027  -40.0748  -54.3797 O.2       10 UNK        -0.5027 
     22 N          26.2373  -43.5409  -54.4182 N.am      10 UNK        -0.4495 
     23 C          25.8896  -44.1775  -55.5425 C.2       10 UNK         0.4903 
     24 O          25.5627  -43.6179  -56.5919 O.2       10 UNK        -0.4860 
     25 CA         25.9014  -45.7073  -55.4621 C.3       9 UNK         0.0227 
     26 CB         24.6424  -46.2294  -54.7484 C.3       9 UNK        -0.1964 
     27 N          25.9591  -46.2746  -56.8072 N.am      9 UNK        -0.4231 
     28 C          26.8473  -47.1833  -57.2189 C.2       9 UNK         0.5014 
     29 O          27.7406  -47.6546  -56.5100 O.2       9 UNK        -0.5270 
     30 CA         26.7112  -47.6515  -58.6717 C.3       8 UNK         0.0284 
     31 CB         27.3593  -46.6581  -59.6513 C.3       8 UNK        -0.1977 
     32 N          27.3708  -48.9463  -58.7745 N.am      8 UNK        -0.4342 
     33 C          26.9376  -50.0037  -59.4658 C.2       8 UNK         0.5039 
     34 O          25.9689  -49.9764  -60.2266 O.2       8 UNK        -0.5547 
     35 CA         27.7068  -51.3238  -59.2735 C.3       7 UNK         0.0281 
     36 CB         28.6935  -51.5407  -60.4321 C.3       7 UNK        -0.1963 
     37 N          28.4406  -51.3964  -58.0065 N.am      7 UNK        -0.4444 
     38 C          27.9014  -51.4943  -56.7849 C.2       7 UNK         0.5104 
     39 O          26.6892  -51.5763  -56.5850 O.2       7 UNK        -0.5100 
     40 CA         28.8622  -51.4940  -55.5771 C.3       6 UNK         0.0396 
     41 CB         29.3314  -52.9220  -55.2415 C.3       6 UNK        -0.1801 
     42 N          30.0024  -50.5696  -55.6778 N.am      6 UNK        -0.4747 
     43 C          31.0283  -50.5829  -56.5438 C.2       6 UNK         0.5012 
     44 O          31.1693  -51.4265  -57.4308 O.2       6 UNK        -0.5003 
     45 CA         32.0630  -49.4521  -56.4073 C.3       5 UNK         0.0782 
     46 C46        31.4620  -48.0696  -56.7516 C.3       11 UNK        -0.0868 
     47 S47        30.9615  -47.8610  -58.4926 S.3       11 UNK        -0.2515 
     48 C48        32.0071  -46.4632  -59.0293 C.3       11 UNK         0.0199 
     49 N          32.6581  -49.4304  -55.0715 N.am      5 UNK        -0.4607 
     50 C          33.4343  -50.3783  -54.5323 C.2       4 UNK         0.5031 
     51 O          33.7989  -51.3922  -55.1275 O.2       4 UNK        -0.5119 
     52 CA         33.8776  -50.1536  -53.0745 C.3       4 UNK         0.0263 
     53 CB         35.1152  -49.2437  -53.0138 C.3       4 UNK        -0.1967 
     54 N          32.8112  -49.5852  -52.2452 N.am      4 UNK        -0.4237 
     55 C          31.6867  -50.2358  -51.9109 C.2       3 UNK         0.4908 
     56 O          31.4715  -51.4188  -52.1763 O.2       3 UNK        -0.5102 
     57 CA         30.6074  -49.4252  -51.1761 C.3       3 UNK         0.0241 
     58 CB         30.8659  -49.4072  -49.6606 C.3       3 UNK        -0.1971 
     59 N          30.5008  -48.0542  -51.6809 N.am      3 UNK        -0.4139 
     60 C          29.9926  -47.7298  -52.8788 C.2       2 UNK         0.5016 
     61 O          29.5441  -48.5527  -53.6758 O.2       2 UNK        -0.5319 
     62 CA         30.0139  -46.2381  -53.2602 C.3       2 UNK         0.0286 
     63 CB         28.8122  -45.5131  -52.6337 C.3       2 UNK        -0.1963 
     64 N          31.2480  -45.5539  -52.8608 N.am      2 UNK        -0.4790 
     65 C          32.4761  -45.8752  -53.2956 C.2       1 UNK         0.5024 
     66 O          32.6967  -46.7714  -54.1052 O.2       1 UNK        -0.4888 
     67 H67        32.2360  -45.9042  -48.4654 H         1 UNK         0.0892 
     68 H68        33.9886  -45.9366  -48.2571 H         1 UNK         0.0892 
     69 H69        33.1825  -44.4355  -48.7178 H         1 UNK         0.0892 
     70 H70        33.4776  -43.9635  -50.8965 H         1 UNK         0.3107 
     71 H71        34.5262  -45.7985  -52.7352 H         1 UNK         0.0773 
     72 H72        34.5506  -43.1387  -52.7440 H         1 UNK         0.0680 
     73 H73        33.1015  -43.2792  -53.6980 H         1 UNK         0.0680 
     74 H74        35.0684  -42.9228  -56.9217 H         1 UNK         0.0650 
     75 H75        34.1800  -42.0529  -55.6990 H         1 UNK         0.0650 
     76 H76        34.0573  -45.2067  -57.7409 H         1 UNK         0.1397 
     77 H77        29.8053  -45.0233  -58.2651 H         1 UNK         0.1363 
     78 H78        31.7975  -42.1407  -55.7892 H         1 UNK         0.1355 
     79 H79        29.2243  -41.9857  -57.4119 H         1 UNK         0.0707 
     80 H80        28.4874  -43.5137  -56.9791 H         1 UNK         0.0707 
     81 H81        27.5869  -40.3901  -54.8889 H         1 UNK         0.1034 
     82 H82        27.1117  -41.4368  -56.1931 H         1 UNK         0.1034 
     83 H83        26.7076  -41.9593  -53.2146 H         1 UNK         0.0482 
     84 H84        23.8566  -42.9581  -54.0672 H         1 UNK         0.3460 
     85 H85        22.9962  -41.4418  -54.1726 H         1 UNK         0.3460 
     86 H86        26.4539  -44.0894  -53.5995 H         1 UNK         0.2989 
     87 H87        26.7826  -46.0037  -54.8915 H         1 UNK         0.0559 
     88 H88        23.7304  -45.9330  -55.2683 H         1 UNK         0.0848 
     89 H89        24.5770  -45.8480  -53.7287 H         1 UNK         0.0848 
     90 H90        24.6501  -47.3177  -54.6833 H         1 UNK         0.0848 
     91 H91        25.3169  -45.8687  -57.4751 H         1 UNK         0.3144 
     92 H92        25.6484  -47.7547  -58.9013 H         1 UNK         0.0727 
     93 H93        26.9037  -45.6703  -59.5722 H         1 UNK         0.0790 
     94 H94        27.2400  -46.9893  -60.6830 H         1 UNK         0.0790 
     95 H95        28.4261  -46.5438  -59.4613 H         1 UNK         0.0790 
     96 H96        28.1302  -49.0684  -58.1147 H         1 UNK         0.3215 
     97 H97        26.9746  -52.1339  -59.2856 H         1 UNK         0.0863 
     98 H98        29.4631  -50.7676  -60.4549 H         1 UNK         0.0808 
     99 H99        28.1787  -51.5179  -61.3937 H         1 UNK         0.0808 
    100 H100       29.1911  -52.5076  -60.3546 H         1 UNK         0.0808 
    101 H101       29.4573  -51.3782  -58.0545 H         1 UNK         0.3118 
    102 H102       28.2838  -51.1337  -54.7249 H         1 UNK         0.0546 
    103 H103       29.9131  -53.3631  -56.0512 H         1 UNK         0.0828 
    104 H104       28.4793  -53.5783  -55.0604 H         1 UNK         0.0828 
    105 H105       29.9469  -52.9331  -54.3416 H         1 UNK         0.0828 
    106 H106       29.9623  -49.8000  -55.0096 H         1 UNK         0.3005 
    107 H107       32.8690  -49.6594  -57.1148 H         1 UNK         0.1257 
    108 H108       32.2043  -47.3089  -56.5182 H         1 UNK         0.0775 
    109 H109       30.6018  -47.8416  -56.1201 H         1 UNK         0.0775 
    110 H110       33.0347  -46.8188  -59.1193 H         1 UNK         0.0840 
    111 H111       31.7005  -46.1603  -60.0312 H         1 UNK         0.0840 
    112 H112       32.4875  -48.5866  -54.5308 H         1 UNK         0.2987 
    113 H113       34.1478  -51.1251  -52.6551 H         1 UNK         0.0785 
    114 H114       35.9403  -49.6703  -53.5856 H         1 UNK         0.0798 
    115 H115       35.4623  -49.1142  -51.9885 H         1 UNK         0.0798 
    116 H116       34.9114  -48.2544  -53.4245 H         1 UNK         0.0798 
    117 H117       32.9334  -48.6301  -51.9214 H         1 UNK         0.3079 
    118 H118       29.6497  -49.9218  -51.3482 H         1 UNK         0.0794 
    119 H119       30.9050  -50.4219  -49.2621 H         1 UNK         0.0786 
    120 H120       30.0725  -48.8818  -49.1289 H         1 UNK         0.0786 
    121 H121       31.8122  -48.9255  -49.4134 H         1 UNK         0.0786 
    122 H122       30.9048  -47.3243  -51.1120 H         1 UNK         0.3032 
    123 H123       29.9293  -46.1753  -54.3481 H         1 UNK         0.1094 
    124 H124       27.8807  -46.0330  -52.8582 H         1 UNK         0.0794 
    125 H125       28.8938  -45.4576  -51.5475 H         1 UNK         0.0794 
    126 H126       28.7229  -44.4966  -53.0153 H         1 UNK         0.0794 
    127 H127       31.1595  -44.8082  -52.1861 H         1 UNK         0.3016 
@<TRIPOS>BOND
     1    1    2 1    
     2    1   67 1    
     3    1   68 1    
     4    1   69 1    
     5    2    3 2    
     6    2    4 am   BACKBONE|DICT|INTERRES
     7    4    5 1    
     8    4   70 1    
     9    5    6 1    
    10    5   65 1    
    11    5   71 1    
    12    6    7 1    
    13    6   72 1    
    14    6   73 1    
    15    7    8 1    
    16    8    9 1    
    17    8   74 1    
    18    8   75 1    
    19    9   10 ar   
    20    9   14 ar   
    21   10   11 ar   
    22   10   76 1    
    23   11   12 ar   
    24   11   48 1    
    25   12   13 ar   
    26   12   77 1    
    27   13   14 ar   
    28   13   15 1    
    29   14   78 1    
    30   15   16 1    
    31   15   79 1    
    32   15   80 1    
    33   16   17 1    
    34   17   18 1    
    35   17   81 1    
    36   17   82 1    
    37   18   19 1    
    38   18   22 1    
    39   18   83 1    
    40   19   20 am   BACKBONE|DICT|INTERRES
    41   19   21 2    
    42   20   84 1    
    43   20   85 1    
    44   22   23 am   BACKBONE|DICT|INTERRES
    45   22   86 1    
    46   23   24 2    
    47   23   25 1    
    48   25   26 1    
    49   25   27 1    
    50   25   87 1    
    51   26   88 1    
    52   26   89 1    
    53   26   90 1    
    54   27   28 am   BACKBONE|DICT|INTERRES
    55   27   91 1    
    56   28   29 2    
    57   28   30 1    
    58   30   31 1    
    59   30   32 1    
    60   30   92 1    
    61   31   93 1    
    62   31   94 1    
    63   31   95 1    
    64   32   33 am   BACKBONE|DICT|INTERRES
    65   32   96 1    
    66   33   34 2    
    67   33   35 1    
    68   35   36 1    
    69   35   37 1    
    70   35   97 1    
    71   36   98 1    
    72   36   99 1    
    73   36  100 1    
    74   37   38 am   BACKBONE|DICT|INTERRES
    75   37  101 1    
    76   38   39 2    
    77   38   40 1    
    78   40   41 1    
    79   40   42 1    
    80   40  102 1    
    81   41  103 1    
    82   41  104 1    
    83   41  105 1    
    84   42   43 am   BACKBONE|DICT|INTERRES
    85   42  106 1    
    86   43   44 2    
    87   43   45 1    
    88   45   46 1    
    89   45   49 1    
    90   45  107 1    
    91   46   47 1    
    92   46  108 1    
    93   46  109 1    
    94   47   48 1    
    95   48  110 1    
    96   48  111 1    
    97   49   50 am   BACKBONE|DICT|INTERRES
    98   49  112 1    
    99   50   51 2    
   100   50   52 1    
   101   52   53 1    
   102   52   54 1    
   103   52  113 1    
   104   53  114 1    
   105   53  115 1    
   106   53  116 1    
   107   54   55 am   BACKBONE|DICT|INTERRES
   108   54  117 1    
   109   55   56 2    
   110   55   57 1    
   111   57   58 1    
   112   57   59 1    
   113   57  118 1    
   114   58  119 1    
   115   58  120 1    
   116   58  121 1    
   117   59   60 am   BACKBONE|DICT|INTERRES
   118   59  122 1    
   119   60   61 2    
   120   60   62 1    
   121   62   63 1    
   122   62   64 1    
   123   62  123 1    
   124   63  124 1    
   125   63  125 1    
   126   63  126 1    
   127   64   65 am   BACKBONE|DICT|INTERRES
   128   64  127 1    
   129   65   66 2    
@<TRIPOS>SUBSTRUCTURE
     1 UNK         1 GROUP             0       ****    0 ROOT    
