@<TRIPOS>MOLECULE
3R134
127   129    1
SMALL
USER_CHARGES


@<TRIPOS>ATOM
      1 CA         35.6853  -46.6493  -50.9017 C.3       0 UNK        -0.1968 
      2 C          34.5443  -45.8686  -51.5378 C.2       0 UNK         0.4852 
      3 O          34.7299  -44.7086  -51.9076 O.2       0 UNK        -0.5359 
      4 N          33.3706  -46.4969  -51.6629 N.am      1 UNK        -0.4300 
      5 CA         32.1893  -45.9444  -52.3158 C.3       1 UNK         0.0863 
      6 C6         31.4289  -44.9252  -51.4204 C.3       11 UNK        -0.0953 
      7 S7         30.0398  -44.0697  -52.2471 S.3       11 UNK        -0.2369 
      8 C8         30.8142  -42.5427  -52.8803 C.3       11 UNK         0.0226 
      9 C9         31.2238  -42.7011  -54.3367 C.ar      11 UNK        -0.0699 
     10 C10        32.4866  -43.2018  -54.6640 C.ar      11 UNK        -0.0804 
     11 C11        32.8293  -43.4594  -55.9949 C.ar      11 UNK        -0.0871 
     12 C12        31.9180  -43.1427  -57.0088 C.ar      11 UNK        -0.1008 
     13 C13        30.6740  -42.5794  -56.6993 C.ar      11 UNK        -0.0735 
     14 C14        30.3281  -42.3726  -55.3601 C.ar      11 UNK        -0.0945 
     15 C15        29.7188  -42.1726  -57.8142 C.3       11 UNK         0.0169 
     16 S16        28.5490  -43.4993  -58.2428 S.3       11 UNK        -0.2669 
     17 C17        27.0208  -42.9517  -57.4000 C.3       11 UNK        -0.0850 
     18 CA         25.9077  -44.0338  -57.2964 C.3       10 UNK         0.0855 
     19 C          25.4694  -44.6050  -58.6742 C.2       10 UNK         0.5543 
     20 N          25.7743  -45.8533  -59.0092 N.am      10 UNK        -0.7343 
     21 O          24.8130  -43.9068  -59.4435 O.2       10 UNK        -0.5027 
     22 N          26.2102  -45.0657  -56.2920 N.am      10 UNK        -0.4495 
     23 C          25.8507  -44.9998  -55.0041 C.2       10 UNK         0.4903 
     24 O          25.2839  -44.0238  -54.5083 O.2       10 UNK        -0.4860 
     25 CA         26.1750  -46.2223  -54.1168 C.3       9 UNK         0.0227 
     26 CB         25.4520  -46.1719  -52.7539 C.3       9 UNK        -0.1964 
     27 N          25.9322  -47.5174  -54.7672 N.am      9 UNK        -0.4231 
     28 C          24.7877  -47.9789  -55.2929 C.2       9 UNK         0.5014 
     29 O          23.7433  -47.3265  -55.3429 O.2       9 UNK        -0.5270 
     30 CA         24.8189  -49.4231  -55.8477 C.3       8 UNK         0.0284 
     31 CB         23.5216  -49.8020  -56.5873 C.3       8 UNK        -0.1977 
     32 N          25.9576  -49.6700  -56.7387 N.am      8 UNK        -0.4342 
     33 C          27.2259  -49.8485  -56.3511 C.2       8 UNK         0.5039 
     34 O          27.5778  -49.8599  -55.1690 O.2       8 UNK        -0.5547 
     35 CA         28.3123  -49.9305  -57.4396 C.3       7 UNK         0.0281 
     36 CB         27.7702  -49.9764  -58.8867 C.3       7 UNK        -0.1963 
     37 N          29.2628  -48.8244  -57.2726 N.am      7 UNK        -0.4444 
     38 C          28.9654  -47.5154  -57.2592 C.2       7 UNK         0.5104 
     39 O          27.8393  -47.0690  -57.4870 O.2       7 UNK        -0.5100 
     40 CA         30.0773  -46.5363  -56.8566 C.3       6 UNK         0.0396 
     41 CB         29.6777  -45.8020  -55.5714 C.3       6 UNK        -0.1801 
     42 N          31.3711  -47.1764  -56.6245 N.am      6 UNK        -0.4747 
     43 C          32.2889  -47.3947  -57.5743 C.2       6 UNK         0.5012 
     44 O          32.0903  -47.1886  -58.7721 O.2       6 UNK        -0.5003 
     45 CA         33.6543  -47.9387  -57.1255 C.3       5 UNK         0.0782 
     46 C46        34.7125  -46.8112  -56.9823 C.3       11 UNK        -0.0868 
     47 S47        34.4420  -45.6939  -55.5571 S.3       11 UNK        -0.2515 
     48 C48        34.1923  -44.0554  -56.3300 C.3       11 UNK         0.0199 
     49 N          33.5524  -48.7885  -55.9324 N.am      5 UNK        -0.4607 
     50 C          34.3599  -49.8261  -55.6879 C.2       4 UNK         0.5031 
     51 O          35.2563  -50.1926  -56.4490 O.2       4 UNK        -0.5119 
     52 CA         34.1384  -50.5868  -54.3709 C.3       4 UNK         0.0263 
     53 CB         34.7566  -49.8125  -53.1953 C.3       4 UNK        -0.1967 
     54 N          32.7301  -50.8677  -54.0826 N.am      4 UNK        -0.4237 
     55 C          31.9259  -51.6714  -54.7909 C.2       3 UNK         0.4908 
     56 O          32.2795  -52.2565  -55.8147 O.2       3 UNK        -0.5102 
     57 CA         30.4823  -51.8754  -54.2829 C.3       3 UNK         0.0241 
     58 CB         30.4083  -53.0505  -53.2888 C.3       3 UNK        -0.1971 
     59 N          29.8338  -50.6716  -53.7415 N.am      3 UNK        -0.4139 
     60 C          30.1669  -49.9493  -52.6647 C.2       2 UNK         0.5016 
     61 O          31.0682  -50.2482  -51.8766 O.2       2 UNK        -0.5319 
     62 CA         29.4060  -48.6267  -52.4741 C.3       2 UNK         0.0286 
     63 CB         28.3378  -48.7674  -51.3797 C.3       2 UNK        -0.1963 
     64 N          30.2990  -47.5111  -52.1400 N.am      2 UNK        -0.4790 
     65 C          31.3801  -47.1371  -52.8412 C.2       1 UNK         0.5024 
     66 O          31.7610  -47.7002  -53.8719 O.2       1 UNK        -0.4888 
     67 H67        35.3780  -47.6501  -50.5987 H         1 UNK         0.0892 
     68 H68        36.0525  -46.1257  -50.0194 H         1 UNK         0.0892 
     69 H69        36.5093  -46.7477  -51.6080 H         1 UNK         0.0892 
     70 H70        33.2761  -47.4546  -51.3526 H         1 UNK         0.3107 
     71 H71        32.5256  -45.4255  -53.2103 H         1 UNK         0.0773 
     72 H72        31.0465  -45.4127  -50.5225 H         1 UNK         0.0680 
     73 H73        32.1235  -44.1682  -51.0551 H         1 UNK         0.0680 
     74 H74        30.0966  -41.7262  -52.7877 H         1 UNK         0.0650 
     75 H75        31.6719  -42.2607  -52.2684 H         1 UNK         0.0650 
     76 H76        33.1954  -43.4274  -53.8787 H         1 UNK         0.1397 
     77 H77        32.1793  -43.3223  -58.0428 H         1 UNK         0.1363 
     78 H78        29.3568  -41.9668  -55.1135 H         1 UNK         0.1355 
     79 H79        30.2889  -41.9153  -58.7081 H         1 UNK         0.0707 
     80 H80        29.1771  -41.2671  -57.5367 H         1 UNK         0.0707 
     81 H81        26.6359  -42.0832  -57.9374 H         1 UNK         0.1034 
     82 H82        27.2741  -42.5915  -56.4021 H         1 UNK         0.1034 
     83 H83        25.0129  -43.5119  -56.9510 H         1 UNK         0.0482 
     84 H84        25.4701  -46.2068  -59.9015 H         1 UNK         0.3460 
     85 H85        26.4201  -46.3959  -58.4441 H         1 UNK         0.3460 
     86 H86        26.6963  -45.8878  -56.6395 H         1 UNK         0.2989 
     87 H87        27.2438  -46.1764  -53.9126 H         1 UNK         0.0559 
     88 H88        24.3687  -46.1339  -52.8746 H         1 UNK         0.0848 
     89 H89        25.7480  -45.2890  -52.1860 H         1 UNK         0.0848 
     90 H90        25.6874  -47.0428  -52.1432 H         1 UNK         0.0848 
     91 H91        26.7176  -48.1613  -54.7994 H         1 UNK         0.3144 
     92 H92        24.9103  -50.0864  -54.9848 H         1 UNK         0.0727 
     93 H93        23.5460  -50.8372  -56.9283 H         1 UNK         0.0790 
     94 H94        23.3524  -49.1648  -57.4563 H         1 UNK         0.0790 
     95 H95        22.6537  -49.7008  -55.9341 H         1 UNK         0.0790 
     96 H96        25.7729  -49.6035  -57.7292 H         1 UNK         0.3215 
     97 H97        28.8624  -50.8550  -57.2579 H         1 UNK         0.0863 
     98 H98        28.5869  -50.0787  -59.6014 H         1 UNK         0.0808 
     99 H99        27.2159  -49.0769  -59.1564 H         1 UNK         0.0808 
    100 H100       27.1119  -50.8335  -59.0353 H         1 UNK         0.0808 
    101 H101       30.2119  -49.0795  -57.0427 H         1 UNK         0.3118 
    102 H102       30.1874  -45.8013  -57.6548 H         1 UNK         0.0546 
    103 H103       28.8790  -45.0865  -55.7559 H         1 UNK         0.0828 
    104 H104       30.5156  -45.2431  -55.1615 H         1 UNK         0.0828 
    105 H105       29.3339  -46.4913  -54.8036 H         1 UNK         0.0828 
    106 H106       31.6076  -47.3462  -55.6506 H         1 UNK         0.3005 
    107 H107       33.9769  -48.5752  -57.9535 H         1 UNK         0.1257 
    108 H108       34.7823  -46.2395  -57.9087 H         1 UNK         0.0775 
    109 H109       35.6976  -47.2619  -56.8538 H         1 UNK         0.0775 
    110 H110       34.9678  -43.3805  -55.9653 H         1 UNK         0.0840 
    111 H111       34.3297  -44.1119  -57.4100 H         1 UNK         0.0840 
    112 H112       32.8731  -48.5233  -55.2270 H         1 UNK         0.2987 
    113 H113       34.6527  -51.5466  -54.4536 H         1 UNK         0.0785 
    114 H114       34.2800  -48.8417  -53.0610 H         1 UNK         0.0798 
    115 H115       35.8194  -49.6320  -53.3627 H         1 UNK         0.0798 
    116 H116       34.6647  -50.3662  -52.2607 H         1 UNK         0.0798 
    117 H117       32.3376  -50.4588  -53.2377 H         1 UNK         0.3079 
    118 H118       29.8874  -52.1519  -55.1549 H         1 UNK         0.0794 
    119 H119       30.9945  -52.8633  -52.3886 H         1 UNK         0.0786 
    120 H120       30.7937  -53.9658  -53.7400 H         1 UNK         0.0786 
    121 H121       29.3803  -53.2473  -52.9845 H         1 UNK         0.0786 
    122 H122       29.0433  -50.3373  -54.2952 H         1 UNK         0.3032 
    123 H123       28.9084  -48.3706  -53.4104 H         1 UNK         0.1094 
    124 H124       27.7852  -47.8387  -51.2405 H         1 UNK         0.0794 
    125 H125       27.6133  -49.5402  -51.6406 H         1 UNK         0.0794 
    126 H126       28.7788  -49.0421  -50.4205 H         1 UNK         0.0794 
    127 H127       30.0715  -46.9914  -51.3051 H         1 UNK         0.3016 
@<TRIPOS>BOND
     1    1    2 1    
     2    1   67 1    
     3    1   68 1    
     4    1   69 1    
     5    2    3 2    
     6    2    4 am   BACKBONE|DICT|INTERRES
     7    4    5 1    
     8    4   70 1    
     9    5    6 1    
    10    5   65 1    
    11    5   71 1    
    12    6    7 1    
    13    6   72 1    
    14    6   73 1    
    15    7    8 1    
    16    8    9 1    
    17    8   74 1    
    18    8   75 1    
    19    9   10 ar   
    20    9   14 ar   
    21   10   11 ar   
    22   10   76 1    
    23   11   12 ar   
    24   11   48 1    
    25   12   13 ar   
    26   12   77 1    
    27   13   14 ar   
    28   13   15 1    
    29   14   78 1    
    30   15   16 1    
    31   15   79 1    
    32   15   80 1    
    33   16   17 1    
    34   17   18 1    
    35   17   81 1    
    36   17   82 1    
    37   18   19 1    
    38   18   22 1    
    39   18   83 1    
    40   19   20 am   BACKBONE|DICT|INTERRES
    41   19   21 2    
    42   20   84 1    
    43   20   85 1    
    44   22   23 am   BACKBONE|DICT|INTERRES
    45   22   86 1    
    46   23   24 2    
    47   23   25 1    
    48   25   26 1    
    49   25   27 1    
    50   25   87 1    
    51   26   88 1    
    52   26   89 1    
    53   26   90 1    
    54   27   28 am   BACKBONE|DICT|INTERRES
    55   27   91 1    
    56   28   29 2    
    57   28   30 1    
    58   30   31 1    
    59   30   32 1    
    60   30   92 1    
    61   31   93 1    
    62   31   94 1    
    63   31   95 1    
    64   32   33 am   BACKBONE|DICT|INTERRES
    65   32   96 1    
    66   33   34 2    
    67   33   35 1    
    68   35   36 1    
    69   35   37 1    
    70   35   97 1    
    71   36   98 1    
    72   36   99 1    
    73   36  100 1    
    74   37   38 am   BACKBONE|DICT|INTERRES
    75   37  101 1    
    76   38   39 2    
    77   38   40 1    
    78   40   41 1    
    79   40   42 1    
    80   40  102 1    
    81   41  103 1    
    82   41  104 1    
    83   41  105 1    
    84   42   43 am   BACKBONE|DICT|INTERRES
    85   42  106 1    
    86   43   44 2    
    87   43   45 1    
    88   45   46 1    
    89   45   49 1    
    90   45  107 1    
    91   46   47 1    
    92   46  108 1    
    93   46  109 1    
    94   47   48 1    
    95   48  110 1    
    96   48  111 1    
    97   49   50 am   BACKBONE|DICT|INTERRES
    98   49  112 1    
    99   50   51 2    
   100   50   52 1    
   101   52   53 1    
   102   52   54 1    
   103   52  113 1    
   104   53  114 1    
   105   53  115 1    
   106   53  116 1    
   107   54   55 am   BACKBONE|DICT|INTERRES
   108   54  117 1    
   109   55   56 2    
   110   55   57 1    
   111   57   58 1    
   112   57   59 1    
   113   57  118 1    
   114   58  119 1    
   115   58  120 1    
   116   58  121 1    
   117   59   60 am   BACKBONE|DICT|INTERRES
   118   59  122 1    
   119   60   61 2    
   120   60   62 1    
   121   62   63 1    
   122   62   64 1    
   123   62  123 1    
   124   63  124 1    
   125   63  125 1    
   126   63  126 1    
   127   64   65 am   BACKBONE|DICT|INTERRES
   128   64  127 1    
   129   65   66 2    
@<TRIPOS>SUBSTRUCTURE
     1 UNK         1 GROUP             0       ****    0 ROOT    
