@<TRIPOS>MOLECULE
3R134
127   129    1
SMALL
USER_CHARGES


@<TRIPOS>ATOM
      1 CA         32.6261  -49.5172  -57.9979 C.3       0 UNK        -0.1968 
      2 C          32.8860  -49.0263  -56.5823 C.2       0 UNK         0.4852 
      3 O          32.8021  -49.8175  -55.6424 O.2       0 UNK        -0.5359 
      4 N          33.2204  -47.7351  -56.4326 N.am      1 UNK        -0.4300 
      5 CA         33.4137  -47.0124  -55.1639 C.3       1 UNK         0.0863 
      6 C6         33.8551  -45.5448  -55.3925 C.3       11 UNK        -0.0953 
      7 S7         32.7669  -44.6226  -56.5293 S.3       11 UNK        -0.2369 
      8 C8         32.8644  -42.9395  -55.8407 C.3       11 UNK         0.0226 
      9 C9         31.7856  -42.7029  -54.7954 C.ar      11 UNK        -0.0699 
     10 C10        32.0598  -42.8557  -53.4337 C.ar      11 UNK        -0.0804 
     11 C11        31.0580  -42.6446  -52.4809 C.ar      11 UNK        -0.0871 
     12 C12        29.7706  -42.2857  -52.9034 C.ar      11 UNK        -0.1008 
     13 C13        29.4850  -42.1224  -54.2646 C.ar      11 UNK        -0.0735 
     14 C14        30.5058  -42.3166  -55.2004 C.ar      11 UNK        -0.0945 
     15 C15        28.0891  -41.7022  -54.7232 C.3       11 UNK         0.0169 
     16 S16        26.9816  -43.1189  -55.0575 S.3       11 UNK        -0.2669 
     17 C17        27.6682  -43.7902  -56.6125 C.3       11 UNK        -0.0850 
     18 CA         26.6250  -43.8925  -57.7598 C.3       10 UNK         0.0855 
     19 C          27.3195  -43.9599  -59.1569 C.2       10 UNK         0.5543 
     20 N          27.0103  -44.9102  -60.0317 N.am      10 UNK        -0.7343 
     21 O          28.1586  -43.1165  -59.4629 O.2       10 UNK        -0.5027 
     22 N          25.6578  -44.9743  -57.5116 N.am      10 UNK        -0.4495 
     23 C          24.4401  -45.0637  -58.0584 C.2       10 UNK         0.4903 
     24 O          23.9288  -44.1776  -58.7454 O.2       10 UNK        -0.4860 
     25 CA         23.7001  -46.3969  -57.8257 C.3       9 UNK         0.0227 
     26 CB         22.3444  -46.4729  -58.5600 C.3       9 UNK        -0.1964 
     27 N          24.5376  -47.5621  -58.1511 N.am      9 UNK        -0.4231 
     28 C          25.1058  -47.8536  -59.3310 C.2       9 UNK         0.5014 
     29 O          24.9866  -47.1613  -60.3428 O.2       9 UNK        -0.5270 
     30 CA         26.0313  -49.0793  -59.3486 C.3       8 UNK         0.0284 
     31 CB         26.4437  -49.5003  -60.7721 C.3       8 UNK        -0.1977 
     32 N          27.2261  -48.7360  -58.5835 N.am      8 UNK        -0.4342 
     33 C          27.6581  -49.3675  -57.4866 C.2       8 UNK         0.5039 
     34 O          27.1836  -50.4258  -57.0700 O.2       8 UNK        -0.5547 
     35 CA         28.7784  -48.6783  -56.6793 C.3       7 UNK         0.0281 
     36 CB         29.4334  -47.4755  -57.3971 C.3       7 UNK        -0.1963 
     37 N          28.3166  -48.2676  -55.3480 N.am      7 UNK        -0.4444 
     38 C          27.2112  -47.5637  -55.0467 C.2       7 UNK         0.5104 
     39 O          26.4033  -47.1534  -55.8794 O.2       7 UNK        -0.5100 
     40 CA         26.9560  -47.2360  -53.5635 C.3       6 UNK         0.0396 
     41 CB         26.0353  -48.2933  -52.9351 C.3       6 UNK        -0.1801 
     42 N          28.1714  -47.1093  -52.7568 N.am      6 UNK        -0.4747 
     43 C          29.1597  -46.2352  -53.0001 C.2       6 UNK         0.5012 
     44 O          29.1432  -45.4249  -53.9212 O.2       6 UNK        -0.5003 
     45 CA         30.3995  -46.3034  -52.0898 C.3       5 UNK         0.0782 
     46 C46        30.2335  -45.3482  -50.8773 C.3       11 UNK        -0.0868 
     47 S47        31.7904  -44.4835  -50.5015 S.3       11 UNK        -0.2515 
     48 C48        31.3790  -42.7749  -50.9953 C.3       11 UNK         0.0199 
     49 N          30.7542  -47.6684  -51.6649 N.am      5 UNK        -0.4607 
     50 C          30.9310  -48.7212  -52.4753 C.2       4 UNK         0.5031 
     51 O          30.7407  -48.6983  -53.6917 O.2       4 UNK        -0.5119 
     52 CA         31.3322  -50.0414  -51.8188 C.3       4 UNK         0.0263 
     53 CB         30.0925  -50.9277  -51.5904 C.3       4 UNK        -0.1967 
     54 N          32.2894  -50.7046  -52.6985 N.am      4 UNK        -0.4237 
     55 C          33.1057  -51.7041  -52.3437 C.2       3 UNK         0.4908 
     56 O          33.0970  -52.2422  -51.2358 O.2       3 UNK        -0.5102 
     57 CA         34.1343  -52.1527  -53.3901 C.3       3 UNK         0.0241 
     58 CB         33.4701  -52.9628  -54.5166 C.3       3 UNK        -0.1971 
     59 N          34.8316  -50.9915  -53.9444 N.am      3 UNK        -0.4139 
     60 C          35.8967  -50.4127  -53.3698 C.2       2 UNK         0.5016 
     61 O          36.4622  -50.8616  -52.3716 O.2       2 UNK        -0.5319 
     62 CA         36.4364  -49.1174  -54.0040 C.3       2 UNK         0.0286 
     63 CB         37.6180  -49.4284  -54.9370 C.3       2 UNK        -0.1963 
     64 N          35.4273  -48.3601  -54.7470 N.am      2 UNK        -0.4790 
     65 C          34.4032  -47.6936  -54.1931 C.2       1 UNK         0.5024 
     66 O          34.2219  -47.6061  -52.9786 O.2       1 UNK        -0.4888 
     67 H67        31.6363  -49.9679  -58.0609 H         1 UNK         0.0892 
     68 H68        32.6776  -48.7090  -58.7272 H         1 UNK         0.0892 
     69 H69        33.3617  -50.2727  -58.2726 H         1 UNK         0.0892 
     70 H70        33.2754  -47.1487  -57.2534 H         1 UNK         0.3107 
     71 H71        32.4416  -46.9937  -54.6701 H         1 UNK         0.0773 
     72 H72        33.8905  -45.0187  -54.4370 H         1 UNK         0.0680 
     73 H73        34.8671  -45.5047  -55.8006 H         1 UNK         0.0680 
     74 H74        32.7446  -42.2237  -56.6554 H         1 UNK         0.0650 
     75 H75        33.8570  -42.7589  -55.4252 H         1 UNK         0.0650 
     76 H76        33.0527  -43.1375  -53.1114 H         1 UNK         0.1397 
     77 H77        28.9887  -42.1257  -52.1738 H         1 UNK         0.1363 
     78 H78        30.3119  -42.1721  -56.2530 H         1 UNK         0.1355 
     79 H79        27.6280  -41.0795  -53.9552 H         1 UNK         0.0707 
     80 H80        28.1561  -41.0754  -55.6138 H         1 UNK         0.0707 
     81 H81        28.4944  -43.1531  -56.9187 H         1 UNK         0.1034 
     82 H82        28.1135  -44.7626  -56.4001 H         1 UNK         0.1034 
     83 H83        26.0674  -42.9542  -57.7737 H         1 UNK         0.0482 
     84 H84        27.4741  -44.9119  -60.9259 H         1 UNK         0.3460 
     85 H85        26.2552  -45.5617  -59.8615 H         1 UNK         0.3460 
     86 H86        25.9864  -45.7518  -56.9411 H         1 UNK         0.2989 
     87 H87        23.4992  -46.4523  -56.7547 H         1 UNK         0.0559 
     88 H88        21.6848  -45.6633  -58.2456 H         1 UNK         0.0848 
     89 H89        21.8299  -47.4099  -58.3475 H         1 UNK         0.0848 
     90 H90        22.4625  -46.3930  -59.6412 H         1 UNK         0.0848 
     91 H91        24.8020  -48.1315  -57.3570 H         1 UNK         0.3144 
     92 H92        25.4904  -49.9083  -58.8872 H         1 UNK         0.0727 
     93 H93        26.9976  -48.7132  -61.2854 H         1 UNK         0.0790 
     94 H94        25.5676  -49.7336  -61.3785 H         1 UNK         0.0790 
     95 H95        27.0715  -50.3912  -60.7524 H         1 UNK         0.0790 
     96 H96        27.6611  -47.8559  -58.8224 H         1 UNK         0.3215 
     97 H97        29.5518  -49.4306  -56.5160 H         1 UNK         0.0863 
     98 H98        30.2346  -47.0524  -56.7898 H         1 UNK         0.0808 
     99 H99        28.7225  -46.6740  -57.5959 H         1 UNK         0.0808 
    100 H100       29.8777  -47.7743  -58.3474 H         1 UNK         0.0808 
    101 H101       28.9455  -48.5104  -54.5883 H         1 UNK         0.3118 
    102 H102       26.4430  -46.2724  -53.5303 H         1 UNK         0.0546 
    103 H103       26.5067  -49.2768  -52.9120 H         1 UNK         0.0828 
    104 H104       25.1090  -48.3899  -53.5035 H         1 UNK         0.0828 
    105 H105       25.7597  -48.0264  -51.9148 H         1 UNK         0.0828 
    106 H106       28.2791  -47.7501  -51.9842 H         1 UNK         0.3005 
    107 H107       31.2231  -45.9497  -52.7150 H         1 UNK         0.1257 
    108 H108       29.9069  -45.8910  -49.9887 H         1 UNK         0.0775 
    109 H109       29.4606  -44.5948  -51.0451 H         1 UNK         0.0775 
    110 H110       30.5478  -42.4177  -50.3851 H         1 UNK         0.0840 
    111 H111       32.2255  -42.1290  -50.7582 H         1 UNK         0.0840 
    112 H112       30.9279  -47.7859  -50.6772 H         1 UNK         0.2987 
    113 H113       31.8181  -49.8325  -50.8633 H         1 UNK         0.0785 
    114 H114       29.3596  -50.4216  -50.9609 H         1 UNK         0.0798 
    115 H115       30.3528  -51.8615  -51.0923 H         1 UNK         0.0798 
    116 H116       29.5998  -51.1771  -52.5312 H         1 UNK         0.0798 
    117 H117       32.3497  -50.3096  -53.6353 H         1 UNK         0.3079 
    118 H118       34.8578  -52.8052  -52.8959 H         1 UNK         0.0794 
    119 H119       34.2052  -53.2968  -55.2490 H         1 UNK         0.0786 
    120 H120       32.7099  -52.3873  -55.0453 H         1 UNK         0.0786 
    121 H121       32.9826  -53.8530  -54.1172 H         1 UNK         0.0786 
    122 H122       34.3736  -50.5207  -54.7198 H         1 UNK         0.3032 
    123 H123       36.7997  -48.4871  -53.1888 H         1 UNK         0.1094 
    124 H124       37.3138  -50.0460  -55.7830 H         1 UNK         0.0794 
    125 H125       38.0657  -48.5152  -55.3296 H         1 UNK         0.0794 
    126 H126       38.4029  -49.9685  -54.4054 H         1 UNK         0.0794 
    127 H127       35.4929  -48.3775  -55.7548 H         1 UNK         0.3016 
@<TRIPOS>BOND
     1    1    2 1    
     2    1   67 1    
     3    1   68 1    
     4    1   69 1    
     5    2    3 2    
     6    2    4 am   BACKBONE|DICT|INTERRES
     7    4    5 1    
     8    4   70 1    
     9    5    6 1    
    10    5   65 1    
    11    5   71 1    
    12    6    7 1    
    13    6   72 1    
    14    6   73 1    
    15    7    8 1    
    16    8    9 1    
    17    8   74 1    
    18    8   75 1    
    19    9   10 ar   
    20    9   14 ar   
    21   10   11 ar   
    22   10   76 1    
    23   11   12 ar   
    24   11   48 1    
    25   12   13 ar   
    26   12   77 1    
    27   13   14 ar   
    28   13   15 1    
    29   14   78 1    
    30   15   16 1    
    31   15   79 1    
    32   15   80 1    
    33   16   17 1    
    34   17   18 1    
    35   17   81 1    
    36   17   82 1    
    37   18   19 1    
    38   18   22 1    
    39   18   83 1    
    40   19   20 am   BACKBONE|DICT|INTERRES
    41   19   21 2    
    42   20   84 1    
    43   20   85 1    
    44   22   23 am   BACKBONE|DICT|INTERRES
    45   22   86 1    
    46   23   24 2    
    47   23   25 1    
    48   25   26 1    
    49   25   27 1    
    50   25   87 1    
    51   26   88 1    
    52   26   89 1    
    53   26   90 1    
    54   27   28 am   BACKBONE|DICT|INTERRES
    55   27   91 1    
    56   28   29 2    
    57   28   30 1    
    58   30   31 1    
    59   30   32 1    
    60   30   92 1    
    61   31   93 1    
    62   31   94 1    
    63   31   95 1    
    64   32   33 am   BACKBONE|DICT|INTERRES
    65   32   96 1    
    66   33   34 2    
    67   33   35 1    
    68   35   36 1    
    69   35   37 1    
    70   35   97 1    
    71   36   98 1    
    72   36   99 1    
    73   36  100 1    
    74   37   38 am   BACKBONE|DICT|INTERRES
    75   37  101 1    
    76   38   39 2    
    77   38   40 1    
    78   40   41 1    
    79   40   42 1    
    80   40  102 1    
    81   41  103 1    
    82   41  104 1    
    83   41  105 1    
    84   42   43 am   BACKBONE|DICT|INTERRES
    85   42  106 1    
    86   43   44 2    
    87   43   45 1    
    88   45   46 1    
    89   45   49 1    
    90   45  107 1    
    91   46   47 1    
    92   46  108 1    
    93   46  109 1    
    94   47   48 1    
    95   48  110 1    
    96   48  111 1    
    97   49   50 am   BACKBONE|DICT|INTERRES
    98   49  112 1    
    99   50   51 2    
   100   50   52 1    
   101   52   53 1    
   102   52   54 1    
   103   52  113 1    
   104   53  114 1    
   105   53  115 1    
   106   53  116 1    
   107   54   55 am   BACKBONE|DICT|INTERRES
   108   54  117 1    
   109   55   56 2    
   110   55   57 1    
   111   57   58 1    
   112   57   59 1    
   113   57  118 1    
   114   58  119 1    
   115   58  120 1    
   116   58  121 1    
   117   59   60 am   BACKBONE|DICT|INTERRES
   118   59  122 1    
   119   60   61 2    
   120   60   62 1    
   121   62   63 1    
   122   62   64 1    
   123   62  123 1    
   124   63  124 1    
   125   63  125 1    
   126   63  126 1    
   127   64   65 am   BACKBONE|DICT|INTERRES
   128   64  127 1    
   129   65   66 2    
@<TRIPOS>SUBSTRUCTURE
     1 UNK         1 GROUP             0       ****    0 ROOT    
