@<TRIPOS>MOLECULE
3R134
127   129    1
SMALL
USER_CHARGES


@<TRIPOS>ATOM
      1 CA         33.1662  -43.1177  -48.1215 C.3       0 UNK        -0.1968 
      2 C          33.2080  -44.5073  -48.7405 C.2       0 UNK         0.4852 
      3 O          33.4195  -45.4862  -48.0244 O.2       0 UNK        -0.5359 
      4 N          33.0167  -44.5930  -50.0628 N.am      1 UNK        -0.4300 
      5 CA         32.9740  -45.8331  -50.8451 C.3       1 UNK         0.0863 
      6 C6         32.9569  -45.5273  -52.3599 C.3       11 UNK        -0.0953 
      7 S7         34.4573  -44.6767  -52.9447 S.3       11 UNK        -0.2369 
      8 C8         33.7532  -43.2039  -53.7584 C.3       11 UNK         0.0226 
      9 C9         32.9085  -43.5474  -54.9816 C.ar      11 UNK        -0.0699 
     10 C10        33.4735  -44.2348  -56.0595 C.ar      11 UNK        -0.0804 
     11 C11        32.7145  -44.5289  -57.1960 C.ar      11 UNK        -0.0871 
     12 C12        31.3716  -44.1394  -57.2473 C.ar      11 UNK        -0.1008 
     13 C13        30.7946  -43.4377  -56.1818 C.ar      11 UNK        -0.0735 
     14 C14        31.5712  -43.1435  -55.0545 C.ar      11 UNK        -0.0945 
     15 C15        29.3519  -42.9490  -56.2706 C.3       11 UNK         0.0169 
     16 S16        28.3246  -43.5523  -54.8923 S.3       11 UNK        -0.2669 
     17 C17        26.7248  -42.7443  -55.2323 C.3       11 UNK        -0.0850 
     18 CA         25.6077  -43.7486  -55.6264 C.3       10 UNK         0.0855 
     19 C          24.2134  -43.0542  -55.5819 C.2       10 UNK         0.5543 
     20 N          23.5192  -42.8748  -56.6995 N.am      10 UNK        -0.7343 
     21 O          23.7539  -42.6715  -54.5087 O.2       10 UNK        -0.5027 
     22 N          25.9121  -44.4385  -56.8928 N.am      10 UNK        -0.4495 
     23 C          25.3164  -45.5604  -57.3216 C.2       10 UNK         0.4903 
     24 O          24.4545  -46.1630  -56.6801 O.2       10 UNK        -0.4860 
     25 CA         25.7106  -46.0795  -58.7171 C.3       9 UNK         0.0227 
     26 CB         26.7583  -45.2079  -59.4436 C.3       9 UNK        -0.1964 
     27 N          26.2154  -47.4484  -58.6158 N.am      9 UNK        -0.4231 
     28 C          25.5079  -48.5604  -58.8574 C.2       9 UNK         0.5014 
     29 O          24.3296  -48.5650  -59.2182 O.2       9 UNK        -0.5270 
     30 CA         26.2448  -49.9023  -58.6941 C.3       8 UNK         0.0284 
     31 CB         27.1975  -50.1515  -59.8753 C.3       8 UNK        -0.1977 
     32 N          26.9858  -49.9977  -57.4350 N.am      8 UNK        -0.4342 
     33 C          26.4190  -50.1256  -56.2263 C.2       8 UNK         0.5039 
     34 O          25.2064  -50.2429  -56.0449 O.2       8 UNK        -0.5547 
     35 CA         27.3626  -50.1162  -55.0099 C.3       7 UNK         0.0281 
     36 CB         27.9481  -51.5140  -54.7526 C.3       7 UNK        -0.1963 
     37 N          28.4481  -49.1463  -55.1592 N.am      7 UNK        -0.4444 
     38 C          28.2751  -47.8174  -55.1704 C.2       7 UNK         0.5104 
     39 O          27.2022  -47.2647  -54.9345 O.2       7 UNK        -0.5100 
     40 CA         29.4974  -46.9637  -55.5354 C.3       6 UNK         0.0396 
     41 CB         30.3119  -46.6065  -54.2877 C.3       6 UNK        -0.1801 
     42 N          30.3643  -47.6074  -56.5216 N.am      6 UNK        -0.4747 
     43 C          30.0518  -47.7465  -57.8166 C.2       6 UNK         0.5012 
     44 O          29.0018  -47.3412  -58.3100 O.2       6 UNK        -0.5003 
     45 CA         31.0486  -48.5147  -58.7037 C.3       5 UNK         0.0782 
     46 C46        32.1006  -47.5760  -59.3431 C.3       11 UNK        -0.0868 
     47 S47        33.4164  -47.0248  -58.1970 S.3       11 UNK        -0.2515 
     48 C48        33.3751  -45.2141  -58.3834 C.3       11 UNK         0.0199 
     49 N          31.6577  -49.6461  -58.0009 N.am      5 UNK        -0.4607 
     50 C          30.9870  -50.7197  -57.5642 C.2       4 UNK         0.5031 
     51 O          29.7876  -50.9051  -57.7689 O.2       4 UNK        -0.5119 
     52 CA         31.7782  -51.7184  -56.7032 C.3       4 UNK         0.0263 
     53 CB         32.5283  -52.7237  -57.5909 C.3       4 UNK        -0.1967 
     54 N          32.7218  -51.0579  -55.7920 N.am      4 UNK        -0.4237 
     55 C          32.3535  -50.2440  -54.7938 C.2       3 UNK         0.4908 
     56 O          31.1793  -49.9787  -54.5238 O.2       3 UNK        -0.5102 
     57 CA         33.4753  -49.5759  -53.9944 C.3       3 UNK         0.0241 
     58 CB         33.9838  -48.3137  -54.7174 C.3       3 UNK        -0.1971 
     59 N          32.9531  -49.2462  -52.6694 N.am      3 UNK        -0.4139 
     60 C          33.6910  -49.0591  -51.5698 C.2       2 UNK         0.5016 
     61 O          34.9214  -49.0006  -51.5722 O.2       2 UNK        -0.5319 
     62 CA         32.9184  -48.9351  -50.2434 C.3       2 UNK         0.0286 
     63 CB         33.8205  -48.7024  -49.0116 C.3       2 UNK        -0.1963 
     64 N          31.7857  -47.9972  -50.2742 N.am      2 UNK        -0.4790 
     65 C          31.7236  -46.6696  -50.4766 C.2       1 UNK         0.5024 
     66 O          30.6416  -46.0856  -50.4100 O.2       1 UNK        -0.4888 
     67 H67        32.3727  -43.0631  -47.3767 H         1 UNK         0.0892 
     68 H68        34.1127  -42.8983  -47.6282 H         1 UNK         0.0892 
     69 H69        32.9853  -42.3433  -48.8668 H         1 UNK         0.0892 
     70 H70        32.8373  -43.7504  -50.5880 H         1 UNK         0.3107 
     71 H71        33.8833  -46.3863  -50.6242 H         1 UNK         0.0773 
     72 H72        32.8744  -46.4500  -52.9301 H         1 UNK         0.0680 
     73 H73        32.0779  -44.9319  -52.6133 H         1 UNK         0.0680 
     74 H74        34.5711  -42.5528  -54.0693 H         1 UNK         0.0650 
     75 H75        33.1723  -42.6390  -53.0278 H         1 UNK         0.0650 
     76 H76        34.5122  -44.5333  -56.0159 H         1 UNK         0.1397 
     77 H77        30.7841  -44.3617  -58.1276 H         1 UNK         0.1363 
     78 H78        31.1293  -42.5939  -54.2347 H         1 UNK         0.1355 
     79 H79        29.3517  -41.8581  -56.2692 H         1 UNK         0.0707 
     80 H80        28.8973  -43.2618  -57.2115 H         1 UNK         0.0707 
     81 H81        26.4498  -42.2069  -54.3224 H         1 UNK         0.1034 
     82 H82        26.8429  -41.9796  -56.0021 H         1 UNK         0.1034 
     83 H83        25.5748  -44.5168  -54.8509 H         1 UNK         0.0482 
     84 H84        23.8848  -43.1871  -57.5841 H         1 UNK         0.3460 
     85 H85        22.6176  -42.4264  -56.6547 H         1 UNK         0.3460 
     86 H86        26.6052  -44.0035  -57.4811 H         1 UNK         0.2989 
     87 H87        24.8031  -46.0656  -59.3239 H         1 UNK         0.0559 
     88 H88        26.3824  -44.1995  -59.6211 H         1 UNK         0.0848 
     89 H89        27.0031  -45.6277  -60.4195 H         1 UNK         0.0848 
     90 H90        27.6904  -45.1261  -58.8834 H         1 UNK         0.0848 
     91 H91        27.1934  -47.5369  -58.3452 H         1 UNK         0.3144 
     92 H92        25.4937  -50.6952  -58.6998 H         1 UNK         0.0727 
     93 H93        27.6707  -51.1310  -59.8027 H         1 UNK         0.0790 
     94 H94        27.9877  -49.4023  -59.9252 H         1 UNK         0.0790 
     95 H95        26.6587  -50.1208  -60.8233 H         1 UNK         0.0790 
     96 H96        27.9994  -50.0029  -57.4958 H         1 UNK         0.3215 
     97 H97        26.7748  -49.8283  -54.1354 H         1 UNK         0.0863 
     98 H98        28.5916  -51.5188  -53.8725 H         1 UNK         0.0808 
     99 H99        28.5365  -51.8705  -55.5980 H         1 UNK         0.0808 
    100 H100       27.1540  -52.2413  -54.5795 H         1 UNK         0.0808 
    101 H101       29.3899  -49.5111  -55.2654 H         1 UNK         0.3118 
    102 H102       29.1303  -46.0389  -55.9810 H         1 UNK         0.0546 
    103 H103       29.7066  -46.0472  -53.5732 H         1 UNK         0.0828 
    104 H104       31.1598  -45.9791  -54.5568 H         1 UNK         0.0828 
    105 H105       30.6885  -47.4902  -53.7745 H         1 UNK         0.0828 
    106 H106       31.2350  -47.9934  -56.1892 H         1 UNK         0.3005 
    107 H107       30.4574  -48.9347  -59.5210 H         1 UNK         0.1257 
    108 H108       32.5920  -48.1005  -60.1639 H         1 UNK         0.0775 
    109 H109       31.6089  -46.7185  -59.8059 H         1 UNK         0.0775 
    110 H110       34.4026  -44.8588  -58.4756 H         1 UNK         0.0840 
    111 H111       32.8860  -44.9260  -59.3145 H         1 UNK         0.0840 
    112 H112       32.6410  -49.5594  -57.7895 H         1 UNK         0.2987 
    113 H113       31.0577  -52.2706  -56.0958 H         1 UNK         0.0785 
    114 H114       33.0237  -53.4887  -56.9927 H         1 UNK         0.0798 
    115 H115       33.2845  -52.2366  -58.2079 H         1 UNK         0.0798 
    116 H116       31.8401  -53.2374  -58.2639 H         1 UNK         0.0798 
    117 H117       33.7051  -51.2253  -55.9530 H         1 UNK         0.3079 
    118 H118       34.2952  -50.2888  -53.8816 H         1 UNK         0.0794 
    119 H119       34.4512  -48.5712  -55.6682 H         1 UNK         0.0786 
    120 H120       34.7341  -47.7871  -54.1273 H         1 UNK         0.0786 
    121 H121       33.1778  -47.6124  -54.9341 H         1 UNK         0.0786 
    122 H122       31.9443  -49.3098  -52.5985 H         1 UNK         0.3032 
    123 H123       32.4649  -49.9176  -50.0984 H         1 UNK         0.1094 
    124 H124       34.4217  -47.7982  -49.0817 H         1 UNK         0.0794 
    125 H125       33.2325  -48.6385  -48.0960 H         1 UNK         0.0794 
    126 H126       34.5178  -49.5317  -48.8861 H         1 UNK         0.0794 
    127 H127       30.8992  -48.4409  -50.0773 H         1 UNK         0.3016 
@<TRIPOS>BOND
     1    1    2 1    
     2    1   67 1    
     3    1   68 1    
     4    1   69 1    
     5    2    3 2    
     6    2    4 am   BACKBONE|DICT|INTERRES
     7    4    5 1    
     8    4   70 1    
     9    5    6 1    
    10    5   65 1    
    11    5   71 1    
    12    6    7 1    
    13    6   72 1    
    14    6   73 1    
    15    7    8 1    
    16    8    9 1    
    17    8   74 1    
    18    8   75 1    
    19    9   10 ar   
    20    9   14 ar   
    21   10   11 ar   
    22   10   76 1    
    23   11   12 ar   
    24   11   48 1    
    25   12   13 ar   
    26   12   77 1    
    27   13   14 ar   
    28   13   15 1    
    29   14   78 1    
    30   15   16 1    
    31   15   79 1    
    32   15   80 1    
    33   16   17 1    
    34   17   18 1    
    35   17   81 1    
    36   17   82 1    
    37   18   19 1    
    38   18   22 1    
    39   18   83 1    
    40   19   20 am   BACKBONE|DICT|INTERRES
    41   19   21 2    
    42   20   84 1    
    43   20   85 1    
    44   22   23 am   BACKBONE|DICT|INTERRES
    45   22   86 1    
    46   23   24 2    
    47   23   25 1    
    48   25   26 1    
    49   25   27 1    
    50   25   87 1    
    51   26   88 1    
    52   26   89 1    
    53   26   90 1    
    54   27   28 am   BACKBONE|DICT|INTERRES
    55   27   91 1    
    56   28   29 2    
    57   28   30 1    
    58   30   31 1    
    59   30   32 1    
    60   30   92 1    
    61   31   93 1    
    62   31   94 1    
    63   31   95 1    
    64   32   33 am   BACKBONE|DICT|INTERRES
    65   32   96 1    
    66   33   34 2    
    67   33   35 1    
    68   35   36 1    
    69   35   37 1    
    70   35   97 1    
    71   36   98 1    
    72   36   99 1    
    73   36  100 1    
    74   37   38 am   BACKBONE|DICT|INTERRES
    75   37  101 1    
    76   38   39 2    
    77   38   40 1    
    78   40   41 1    
    79   40   42 1    
    80   40  102 1    
    81   41  103 1    
    82   41  104 1    
    83   41  105 1    
    84   42   43 am   BACKBONE|DICT|INTERRES
    85   42  106 1    
    86   43   44 2    
    87   43   45 1    
    88   45   46 1    
    89   45   49 1    
    90   45  107 1    
    91   46   47 1    
    92   46  108 1    
    93   46  109 1    
    94   47   48 1    
    95   48  110 1    
    96   48  111 1    
    97   49   50 am   BACKBONE|DICT|INTERRES
    98   49  112 1    
    99   50   51 2    
   100   50   52 1    
   101   52   53 1    
   102   52   54 1    
   103   52  113 1    
   104   53  114 1    
   105   53  115 1    
   106   53  116 1    
   107   54   55 am   BACKBONE|DICT|INTERRES
   108   54  117 1    
   109   55   56 2    
   110   55   57 1    
   111   57   58 1    
   112   57   59 1    
   113   57  118 1    
   114   58  119 1    
   115   58  120 1    
   116   58  121 1    
   117   59   60 am   BACKBONE|DICT|INTERRES
   118   59  122 1    
   119   60   61 2    
   120   60   62 1    
   121   62   63 1    
   122   62   64 1    
   123   62  123 1    
   124   63  124 1    
   125   63  125 1    
   126   63  126 1    
   127   64   65 am   BACKBONE|DICT|INTERRES
   128   64  127 1    
   129   65   66 2    
@<TRIPOS>SUBSTRUCTURE
     1 UNK         1 GROUP             0       ****    0 ROOT    
