@<TRIPOS>MOLECULE
3R134
127   129    1
SMALL
USER_CHARGES


@<TRIPOS>ATOM
      1 CA         36.3492  -44.8999  -47.4632 C.3       0 UNK        -0.1968 
      2 C          36.3904  -45.0713  -48.9748 C.2       0 UNK         0.4852 
      3 O          37.3890  -45.5592  -49.5076 O.2       0 UNK        -0.5359 
      4 N          35.3190  -44.6655  -49.6677 N.am      1 UNK        -0.4300 
      5 CA         35.1448  -44.8172  -51.1152 C.3       1 UNK         0.0863 
      6 C6         34.1107  -43.8063  -51.6754 C.3       11 UNK        -0.0953 
      7 S7         32.4705  -43.8385  -50.8669 S.3       11 UNK        -0.2369 
      8 C8         31.4962  -44.9294  -51.9525 C.3       11 UNK         0.0226 
      9 C9         31.1378  -44.2761  -53.2807 C.ar      11 UNK        -0.0699 
     10 C10        31.9651  -44.4419  -54.3958 C.ar      11 UNK        -0.0804 
     11 C11        31.6499  -43.8320  -55.6136 C.ar      11 UNK        -0.0871 
     12 C12        30.4892  -43.0647  -55.7147 C.ar      11 UNK        -0.1008 
     13 C13        29.6246  -42.9352  -54.6250 C.ar      11 UNK        -0.0735 
     14 C14        29.9603  -43.5316  -53.4053 C.ar      11 UNK        -0.0945 
     15 C15        28.3218  -42.1651  -54.7763 C.3       11 UNK         0.0169 
     16 S16        26.9953  -43.2291  -55.4314 S.3       11 UNK        -0.2669 
     17 C17        27.5528  -43.4892  -57.1537 C.3       11 UNK        -0.0850 
     18 CA         26.3941  -43.8511  -58.1163 C.3       10 UNK         0.0855 
     19 C          26.8644  -43.8719  -59.6024 C.2       10 UNK         0.5543 
     20 N          26.6199  -44.9236  -60.3768 N.am      10 UNK        -0.7343 
     21 O          27.4538  -42.9009  -60.0702 O.2       10 UNK        -0.5027 
     22 N          25.7140  -45.0804  -57.6888 N.am      10 UNK        -0.4495 
     23 C          24.4297  -45.3670  -57.9251 C.2       10 UNK         0.4903 
     24 O          23.6410  -44.5962  -58.4749 O.2       10 UNK        -0.4860 
     25 CA         23.9674  -46.7649  -57.4788 C.3       9 UNK         0.0227 
     26 CB         22.5898  -47.1608  -58.0520 C.3       9 UNK        -0.1964 
     27 N          24.9698  -47.8015  -57.7556 N.am      9 UNK        -0.4231 
     28 C          25.4529  -48.1760  -58.9526 C.2       9 UNK         0.5014 
     29 O          25.1238  -47.6388  -60.0114 O.2       9 UNK        -0.5270 
     30 CA         26.4901  -49.3203  -58.9957 C.3       8 UNK         0.0284 
     31 CB         27.7199  -48.9278  -59.8342 C.3       8 UNK        -0.1977 
     32 N          26.9351  -49.7615  -57.6713 N.am      8 UNK        -0.4342 
     33 C          26.2310  -50.5364  -56.8353 C.2       8 UNK         0.5039 
     34 O          25.1550  -51.0561  -57.1317 O.2       8 UNK        -0.5547 
     35 CA         26.7862  -50.7232  -55.4119 C.3       7 UNK         0.0281 
     36 CB         27.5126  -52.0722  -55.2964 C.3       7 UNK        -0.1963 
     37 N          27.6770  -49.6432  -54.9677 N.am      7 UNK        -0.4444 
     38 C          27.3247  -48.3571  -54.8140 C.2       7 UNK         0.5104 
     39 O          26.1917  -47.9295  -55.0367 O.2       7 UNK        -0.5100 
     40 CA         28.4364  -47.3787  -54.3918 C.3       6 UNK         0.0396 
     41 CB         28.7250  -47.5051  -52.8894 C.3       6 UNK        -0.1801 
     42 N          29.6724  -47.5737  -55.1566 N.am      6 UNK        -0.4747 
     43 C          29.7771  -47.3690  -56.4794 C.2       6 UNK         0.5012 
     44 O          28.8581  -46.9278  -57.1709 O.2       6 UNK        -0.5003 
     45 CA         31.0887  -47.8205  -57.1586 C.3       5 UNK         0.0782 
     46 C46        32.2229  -46.7728  -57.0910 C.3       11 UNK        -0.0868 
     47 S47        31.8888  -45.2284  -57.9972 S.3       11 UNK        -0.2515 
     48 C48        32.5512  -43.9977  -56.8280 C.3       11 UNK         0.0199 
     49 N          31.5495  -49.0896  -56.5951 N.am      5 UNK        -0.4607 
     50 C          30.9906  -50.2828  -56.8290 C.2       4 UNK         0.5031 
     51 O          30.0405  -50.4555  -57.5907 O.2       4 UNK        -0.5119 
     52 CA         31.5810  -51.4805  -56.0629 C.3       4 UNK         0.0263 
     53 CB         32.7264  -52.1179  -56.8651 C.3       4 UNK        -0.1967 
     54 N          32.0615  -51.1248  -54.7231 N.am      4 UNK        -0.4237 
     55 C          31.2689  -50.7172  -53.7210 C.2       3 UNK         0.4908 
     56 O          30.0454  -50.6414  -53.8103 O.2       3 UNK        -0.5102 
     57 CA         31.9496  -50.2795  -52.4139 C.3       3 UNK         0.0241 
     58 CB         32.1154  -51.4776  -51.4660 C.3       3 UNK        -0.1971 
     59 N          33.2461  -49.6236  -52.6114 N.am      3 UNK        -0.4139 
     60 C          33.4250  -48.4706  -53.2705 C.2       2 UNK         0.5016 
     61 O          32.5174  -47.8530  -53.8321 O.2       2 UNK        -0.5319 
     62 CA         34.8694  -47.9475  -53.3613 C.3       2 UNK         0.0286 
     63 CB         35.3425  -47.9341  -54.8247 C.3       2 UNK        -0.1963 
     64 N          35.0348  -46.6066  -52.7912 N.am      2 UNK        -0.4790 
     65 C          34.8303  -46.2803  -51.5062 C.2       1 UNK         0.5024 
     66 O          34.4257  -47.0785  -50.6563 O.2       1 UNK        -0.4888 
     67 H67        37.1731  -44.2673  -47.1342 H         1 UNK         0.0892 
     68 H68        36.4458  -45.8685  -46.9736 H         1 UNK         0.0892 
     69 H69        35.4174  -44.4433  -47.1298 H         1 UNK         0.0892 
     70 H70        34.5133  -44.3030  -49.1777 H         1 UNK         0.3107 
     71 H71        36.1042  -44.5770  -51.5793 H         1 UNK         0.0773 
     72 H72        34.5033  -42.7980  -51.5353 H         1 UNK         0.0680 
     73 H73        34.0103  -43.9104  -52.7534 H         1 UNK         0.0680 
     74 H74        32.0283  -45.8656  -52.1170 H         1 UNK         0.0650 
     75 H75        30.5836  -45.1923  -51.4171 H         1 UNK         0.0650 
     76 H76        32.8540  -45.0510  -54.3140 H         1 UNK         0.1397 
     77 H77        30.2456  -42.5950  -56.6570 H         1 UNK         0.1363 
     78 H78        29.3004  -43.4249  -52.5553 H         1 UNK         0.1355 
     79 H79        28.4622  -41.3015  -55.4283 H         1 UNK         0.0707 
     80 H80        28.0085  -41.7680  -53.8096 H         1 UNK         0.0707 
     81 H81        28.3149  -44.2709  -57.1639 H         1 UNK         0.1034 
     82 H82        28.0426  -42.5752  -57.4936 H         1 UNK         0.1034 
     83 H83        25.6715  -43.0347  -58.0592 H         1 UNK         0.0482 
     84 H84        26.1020  -45.7213  -60.0313 H         1 UNK         0.3460 
     85 H85        26.9297  -44.9070  -61.3351 H         1 UNK         0.3460 
     86 H86        26.2971  -45.7761  -57.2448 H         1 UNK         0.2989 
     87 H87        23.8711  -46.7201  -56.3931 H         1 UNK         0.0559 
     88 H88        22.2851  -48.1484  -57.7059 H         1 UNK         0.0848 
     89 H89        22.5920  -47.1732  -59.1424 H         1 UNK         0.0848 
     90 H90        21.8189  -46.4563  -57.7376 H         1 UNK         0.0848 
     91 H91        25.3595  -48.2422  -56.9292 H         1 UNK         0.3144 
     92 H92        26.0064  -50.1652  -59.4901 H         1 UNK         0.0727 
     93 H93        28.4568  -49.7308  -59.8612 H         1 UNK         0.0790 
     94 H94        28.2090  -48.0357  -59.4437 H         1 UNK         0.0790 
     95 H95        27.4383  -48.7152  -60.8663 H         1 UNK         0.0790 
     96 H96        27.8278  -49.4061  -57.3535 H         1 UNK         0.3215 
     97 H97        25.9315  -50.7378  -54.7324 H         1 UNK         0.0863 
     98 H98        27.8468  -52.2592  -54.2758 H         1 UNK         0.0808 
     99 H99        28.3838  -52.1147  -55.9499 H         1 UNK         0.0808 
    100 H100       26.8546  -52.8958  -55.5769 H         1 UNK         0.0808 
    101 H101       28.6194  -49.9200  -54.6952 H         1 UNK         0.3118 
    102 H102       28.0866  -46.3620  -54.5852 H         1 UNK         0.0546 
    103 H103       27.8450  -47.2406  -52.3020 H         1 UNK         0.0828 
    104 H104       29.5302  -46.8402  -52.5884 H         1 UNK         0.0828 
    105 H105       29.0107  -48.5186  -52.6089 H         1 UNK         0.0828 
    106 H106       30.4862  -47.9064  -54.6515 H         1 UNK         0.3005 
    107 H107       30.8555  -47.9911  -58.2126 H         1 UNK         0.1257 
    108 H108       33.1346  -47.1942  -57.5174 H         1 UNK         0.0775 
    109 H109       32.4620  -46.5514  -56.0534 H         1 UNK         0.0775 
    110 H110       33.5611  -44.2821  -56.5279 H         1 UNK         0.0840 
    111 H111       32.6470  -43.0400  -57.3419 H         1 UNK         0.0840 
    112 H112       32.2854  -49.0272  -55.9063 H         1 UNK         0.2987 
    113 H113       30.7898  -52.2241  -55.9497 H         1 UNK         0.0785 
    114 H114       33.5627  -51.4299  -56.9958 H         1 UNK         0.0798 
    115 H115       32.3880  -52.4119  -57.8598 H         1 UNK         0.0798 
    116 H116       33.1025  -53.0162  -56.3750 H         1 UNK         0.0798 
    117 H117       33.0569  -51.1719  -54.5625 H         1 UNK         0.3079 
    118 H118       31.2889  -49.5549  -51.9330 H         1 UNK         0.0794 
    119 H119       32.7941  -52.2276  -51.8744 H         1 UNK         0.0786 
    120 H120       31.1574  -51.9681  -51.2866 H         1 UNK         0.0786 
    121 H121       32.5028  -51.1655  -50.4959 H         1 UNK         0.0786 
    122 H122       34.0433  -50.0634  -52.1741 H         1 UNK         0.3032 
    123 H123       35.5216  -48.6223  -52.8023 H         1 UNK         0.1094 
    124 H124       35.2230  -48.9153  -55.2864 H         1 UNK         0.0794 
    125 H125       36.3982  -47.6719  -54.8976 H         1 UNK         0.0794 
    126 H126       34.7790  -47.2198  -55.4256 H         1 UNK         0.0794 
    127 H127       35.3566  -45.8910  -53.4264 H         1 UNK         0.3016 
@<TRIPOS>BOND
     1    1    2 1    
     2    1   67 1    
     3    1   68 1    
     4    1   69 1    
     5    2    3 2    
     6    2    4 am   BACKBONE|DICT|INTERRES
     7    4    5 1    
     8    4   70 1    
     9    5    6 1    
    10    5   65 1    
    11    5   71 1    
    12    6    7 1    
    13    6   72 1    
    14    6   73 1    
    15    7    8 1    
    16    8    9 1    
    17    8   74 1    
    18    8   75 1    
    19    9   10 ar   
    20    9   14 ar   
    21   10   11 ar   
    22   10   76 1    
    23   11   12 ar   
    24   11   48 1    
    25   12   13 ar   
    26   12   77 1    
    27   13   14 ar   
    28   13   15 1    
    29   14   78 1    
    30   15   16 1    
    31   15   79 1    
    32   15   80 1    
    33   16   17 1    
    34   17   18 1    
    35   17   81 1    
    36   17   82 1    
    37   18   19 1    
    38   18   22 1    
    39   18   83 1    
    40   19   20 am   BACKBONE|DICT|INTERRES
    41   19   21 2    
    42   20   84 1    
    43   20   85 1    
    44   22   23 am   BACKBONE|DICT|INTERRES
    45   22   86 1    
    46   23   24 2    
    47   23   25 1    
    48   25   26 1    
    49   25   27 1    
    50   25   87 1    
    51   26   88 1    
    52   26   89 1    
    53   26   90 1    
    54   27   28 am   BACKBONE|DICT|INTERRES
    55   27   91 1    
    56   28   29 2    
    57   28   30 1    
    58   30   31 1    
    59   30   32 1    
    60   30   92 1    
    61   31   93 1    
    62   31   94 1    
    63   31   95 1    
    64   32   33 am   BACKBONE|DICT|INTERRES
    65   32   96 1    
    66   33   34 2    
    67   33   35 1    
    68   35   36 1    
    69   35   37 1    
    70   35   97 1    
    71   36   98 1    
    72   36   99 1    
    73   36  100 1    
    74   37   38 am   BACKBONE|DICT|INTERRES
    75   37  101 1    
    76   38   39 2    
    77   38   40 1    
    78   40   41 1    
    79   40   42 1    
    80   40  102 1    
    81   41  103 1    
    82   41  104 1    
    83   41  105 1    
    84   42   43 am   BACKBONE|DICT|INTERRES
    85   42  106 1    
    86   43   44 2    
    87   43   45 1    
    88   45   46 1    
    89   45   49 1    
    90   45  107 1    
    91   46   47 1    
    92   46  108 1    
    93   46  109 1    
    94   47   48 1    
    95   48  110 1    
    96   48  111 1    
    97   49   50 am   BACKBONE|DICT|INTERRES
    98   49  112 1    
    99   50   51 2    
   100   50   52 1    
   101   52   53 1    
   102   52   54 1    
   103   52  113 1    
   104   53  114 1    
   105   53  115 1    
   106   53  116 1    
   107   54   55 am   BACKBONE|DICT|INTERRES
   108   54  117 1    
   109   55   56 2    
   110   55   57 1    
   111   57   58 1    
   112   57   59 1    
   113   57  118 1    
   114   58  119 1    
   115   58  120 1    
   116   58  121 1    
   117   59   60 am   BACKBONE|DICT|INTERRES
   118   59  122 1    
   119   60   61 2    
   120   60   62 1    
   121   62   63 1    
   122   62   64 1    
   123   62  123 1    
   124   63  124 1    
   125   63  125 1    
   126   63  126 1    
   127   64   65 am   BACKBONE|DICT|INTERRES
   128   64  127 1    
   129   65   66 2    
@<TRIPOS>SUBSTRUCTURE
     1 UNK         1 GROUP             0       ****    0 ROOT    
