@<TRIPOS>MOLECULE
3R134
127   129    1
SMALL
USER_CHARGES


@<TRIPOS>ATOM
      1 CA         37.2771  -46.1313  -49.0821 C.3       0 UNK        -0.1968 
      2 C          35.9922  -45.7616  -49.8079 C.2       0 UNK         0.4852 
      3 O          34.9791  -45.4997  -49.1585 O.2       0 UNK        -0.5359 
      4 N          36.0200  -45.7586  -51.1490 N.am      1 UNK        -0.4300 
      5 CA         34.9413  -45.4088  -52.0916 C.3       1 UNK         0.0863 
      6 C6         34.4117  -43.9503  -51.9225 C.3       11 UNK        -0.0953 
      7 S7         34.6438  -42.8281  -53.3533 S.3       11 UNK        -0.2369 
      8 C8         34.0810  -43.7336  -54.8446 C.3       11 UNK         0.0226 
      9 C9         32.5715  -43.8014  -55.0925 C.ar      11 UNK        -0.0699 
     10 C10        31.6204  -43.5400  -54.0979 C.ar      11 UNK        -0.0804 
     11 C11        30.2541  -43.6685  -54.3622 C.ar      11 UNK        -0.0871 
     12 C12        29.8337  -44.0152  -55.6469 C.ar      11 UNK        -0.1008 
     13 C13        30.7648  -44.3263  -56.6380 C.ar      11 UNK        -0.0735 
     14 C14        32.1286  -44.1968  -56.3611 C.ar      11 UNK        -0.0945 
     15 C15        30.2861  -44.8918  -57.9663 C.3       11 UNK         0.0169 
     16 S16        29.5544  -43.6122  -59.0263 S.3       11 UNK        -0.2669 
     17 C17        28.5328  -44.6384  -60.1415 C.3       11 UNK        -0.0850 
     18 CA         27.0214  -44.5728  -59.7831 C.3       10 UNK         0.0855 
     19 C          26.1049  -45.1507  -60.9017 C.2       10 UNK         0.5543 
     20 N          24.9814  -45.7829  -60.5819 N.am      10 UNK        -0.7343 
     21 O          26.3976  -45.0014  -62.0858 O.2       10 UNK        -0.5027 
     22 N          26.7428  -45.1786  -58.4705 N.am      10 UNK        -0.4495 
     23 C          26.2987  -44.5190  -57.3925 C.2       10 UNK         0.4903 
     24 O          26.1588  -43.2957  -57.3493 O.2       10 UNK        -0.4860 
     25 CA         25.9489  -45.3630  -56.1462 C.3       9 UNK         0.0227 
     26 CB         24.9388  -44.6608  -55.2157 C.3       9 UNK        -0.1964 
     27 N          25.5045  -46.7309  -56.4409 N.am      9 UNK        -0.4231 
     28 C          24.5012  -47.1000  -57.2523 C.2       9 UNK         0.5014 
     29 O          23.7822  -46.2995  -57.8545 O.2       9 UNK        -0.5270 
     30 CA         24.2952  -48.6147  -57.4648 C.3       8 UNK         0.0284 
     31 CB         23.4708  -48.9215  -58.7330 C.3       8 UNK        -0.1977 
     32 N          25.5343  -49.4045  -57.4830 N.am      8 UNK        -0.4342 
     33 C          26.6377  -49.2020  -58.2190 C.2       8 UNK         0.5039 
     34 O          26.8220  -48.2128  -58.9323 O.2       8 UNK        -0.5547 
     35 CA         27.7246  -50.2875  -58.0973 C.3       7 UNK         0.0281 
     36 CB         28.8829  -50.0832  -59.0917 C.3       7 UNK        -0.1963 
     37 N          28.2495  -50.3391  -56.7300 N.am      7 UNK        -0.4444 
     38 C          27.6484  -50.9657  -55.7053 C.2       7 UNK         0.5104 
     39 O          26.6260  -51.6399  -55.8402 O.2       7 UNK        -0.5100 
     40 CA         28.2302  -50.7770  -54.2881 C.3       6 UNK         0.0396 
     41 CB         29.1464  -51.9555  -53.9259 C.3       6 UNK        -0.1801 
     42 N          28.9651  -49.5248  -54.0953 N.am      6 UNK        -0.4747 
     43 C          28.4865  -48.2915  -54.3154 C.2       6 UNK         0.5012 
     44 O          27.3135  -48.0602  -54.6127 O.2       6 UNK        -0.5003 
     45 CA         29.5101  -47.1361  -54.2935 C.3       5 UNK         0.0782 
     46 C46        29.4945  -46.3518  -52.9531 C.3       11 UNK        -0.0868 
     47 S47        28.2448  -45.0160  -52.9578 S.3       11 UNK        -0.2515 
     48 C48        29.2374  -43.5041  -53.2394 C.3       11 UNK         0.0199 
     49 N          30.8652  -47.5544  -54.6861 N.am      5 UNK        -0.4607 
     50 C          31.1841  -48.0827  -55.8785 C.2       4 UNK         0.5031 
     51 O          30.3681  -48.2470  -56.7824 O.2       4 UNK        -0.5119 
     52 CA         32.6283  -48.5590  -56.0906 C.3       4 UNK         0.0263 
     53 CB         33.5143  -47.4204  -56.6132 C.3       4 UNK        -0.1967 
     54 N          33.1936  -49.0971  -54.8542 N.am      4 UNK        -0.4237 
     55 C          33.1027  -50.3807  -54.4788 C.2       3 UNK         0.4908 
     56 O          32.6315  -51.2708  -55.1868 O.2       3 UNK        -0.5102 
     57 CA         33.6045  -50.7371  -53.0668 C.3       3 UNK         0.0241 
     58 CB         35.0823  -51.1580  -53.1108 C.3       3 UNK        -0.1971 
     59 N          33.4371  -49.6531  -52.0945 N.am      3 UNK        -0.4139 
     60 C          32.2567  -49.1522  -51.7041 C.2       2 UNK         0.5016 
     61 O          31.1689  -49.5797  -52.0900 O.2       2 UNK        -0.5319 
     62 CA         32.2946  -47.9347  -50.7644 C.3       2 UNK         0.0286 
     63 CB         32.2942  -48.3931  -49.2980 C.3       2 UNK        -0.1963 
     64 N          33.4181  -47.0129  -50.9799 N.am      2 UNK        -0.4790 
     65 C          33.7774  -46.4285  -52.1318 C.2       1 UNK         0.5024 
     66 O          33.2362  -46.6801  -53.2081 O.2       1 UNK        -0.4888 
     67 H67        37.5869  -45.3146  -48.4307 H         1 UNK         0.0892 
     68 H68        38.0926  -46.3402  -49.7743 H         1 UNK         0.0892 
     69 H69        37.1189  -47.0166  -48.4668 H         1 UNK         0.0892 
     70 H70        36.8876  -46.0162  -51.5996 H         1 UNK         0.3107 
     71 H71        35.4363  -45.4946  -53.0572 H         1 UNK         0.0773 
     72 H72        33.3647  -43.9282  -51.6186 H         1 UNK         0.0680 
     73 H73        34.9264  -43.4594  -51.0956 H         1 UNK         0.0680 
     74 H74        34.5352  -43.2284  -55.6982 H         1 UNK         0.0650 
     75 H75        34.4890  -44.7414  -54.8553 H         1 UNK         0.0650 
     76 H76        31.9302  -43.2586  -53.1051 H         1 UNK         0.1397 
     77 H77        28.7789  -44.1165  -55.8543 H         1 UNK         0.1363 
     78 H78        32.8517  -44.4367  -57.1285 H         1 UNK         0.1355 
     79 H79        31.1035  -45.3782  -58.5007 H         1 UNK         0.0707 
     80 H80        29.5473  -45.6700  -57.7668 H         1 UNK         0.0707 
     81 H81        28.8832  -45.6723  -60.1411 H         1 UNK         0.1034 
     82 H82        28.7044  -44.2660  -61.1530 H         1 UNK         0.1034 
     83 H83        26.7504  -43.5161  -59.7571 H         1 UNK         0.0482 
     84 H84        24.6982  -45.8893  -59.6141 H         1 UNK         0.3460 
     85 H85        24.3962  -46.1434  -61.3178 H         1 UNK         0.3460 
     86 H86        26.7816  -46.1941  -58.4516 H         1 UNK         0.2989 
     87 H87        26.8802  -45.4725  -55.5926 H         1 UNK         0.0559 
     88 H88        24.7408  -45.2578  -54.3255 H         1 UNK         0.0848 
     89 H89        23.9884  -44.4775  -55.7179 H         1 UNK         0.0848 
     90 H90        25.3213  -43.6978  -54.8753 H         1 UNK         0.0848 
     91 H91        26.0475  -47.4579  -55.9811 H         1 UNK         0.3144 
     92 H92        23.7225  -48.9623  -56.6038 H         1 UNK         0.0727 
     93 H93        23.2943  -49.9915  -58.8427 H         1 UNK         0.0790 
     94 H94        23.9769  -48.5716  -59.6337 H         1 UNK         0.0790 
     95 H95        22.4939  -48.4376  -58.6972 H         1 UNK         0.0790 
     96 H96        25.5410  -50.2251  -56.8843 H         1 UNK         0.3215 
     97 H97        27.2584  -51.2459  -58.3367 H         1 UNK         0.0863 
     98 H98        29.6526  -50.8453  -58.9702 H         1 UNK         0.0808 
     99 H99        29.3545  -49.1074  -58.9763 H         1 UNK         0.0808 
    100 H100       28.5232  -50.1443  -60.1194 H         1 UNK         0.0808 
    101 H101       29.0453  -49.7366  -56.5414 H         1 UNK         0.3118 
    102 H102       27.3909  -50.7683  -53.5902 H         1 UNK         0.0546 
    103 H103       28.6161  -52.9048  -54.0127 H         1 UNK         0.0828 
    104 H104       29.5070  -51.8784  -52.8998 H         1 UNK         0.0828 
    105 H105       30.0155  -52.0056  -54.5829 H         1 UNK         0.0828 
    106 H106       29.9219  -49.6058  -53.7663 H         1 UNK         0.3005 
    107 H107       29.1822  -46.4710  -55.0908 H         1 UNK         0.1257 
    108 H108       30.4699  -45.9062  -52.7538 H         1 UNK         0.0775 
    109 H109       29.3002  -47.0139  -52.1074 H         1 UNK         0.0775 
    110 H110       28.5667  -42.6782  -53.4802 H         1 UNK         0.0840 
    111 H111       29.7322  -43.2356  -52.3048 H         1 UNK         0.0840 
    112 H112       31.6092  -47.3829  -54.0185 H         1 UNK         0.2987 
    113 H113       32.6085  -49.3396  -56.8545 H         1 UNK         0.0785 
    114 H114       33.5985  -46.6153  -55.8860 H         1 UNK         0.0798 
    115 H115       33.1040  -46.9963  -57.5305 H         1 UNK         0.0798 
    116 H116       34.5203  -47.7737  -56.8394 H         1 UNK         0.0798 
    117 H117       33.5446  -48.4154  -54.1911 H         1 UNK         0.3079 
    118 H118       33.0155  -51.5880  -52.7177 H         1 UNK         0.0794 
    119 H119       35.7274  -50.3385  -53.4302 H         1 UNK         0.0786 
    120 H120       35.2321  -51.9821  -53.8099 H         1 UNK         0.0786 
    121 H121       35.4278  -51.4979  -52.1343 H         1 UNK         0.0786 
    122 H122       34.2767  -49.2344  -51.7214 H         1 UNK         0.3032 
    123 H123       31.3796  -47.3679  -50.9385 H         1 UNK         0.1094 
    124 H124       33.2084  -48.9303  -49.0426 H         1 UNK         0.0794 
    125 H125       32.2023  -47.5461  -48.6177 H         1 UNK         0.0794 
    126 H126       31.4550  -49.0607  -49.0964 H         1 UNK         0.0794 
    127 H127       33.9043  -46.6855  -50.1480 H         1 UNK         0.3016 
@<TRIPOS>BOND
     1    1    2 1    
     2    1   67 1    
     3    1   68 1    
     4    1   69 1    
     5    2    3 2    
     6    2    4 am   BACKBONE|DICT|INTERRES
     7    4    5 1    
     8    4   70 1    
     9    5    6 1    
    10    5   65 1    
    11    5   71 1    
    12    6    7 1    
    13    6   72 1    
    14    6   73 1    
    15    7    8 1    
    16    8    9 1    
    17    8   74 1    
    18    8   75 1    
    19    9   10 ar   
    20    9   14 ar   
    21   10   11 ar   
    22   10   76 1    
    23   11   12 ar   
    24   11   48 1    
    25   12   13 ar   
    26   12   77 1    
    27   13   14 ar   
    28   13   15 1    
    29   14   78 1    
    30   15   16 1    
    31   15   79 1    
    32   15   80 1    
    33   16   17 1    
    34   17   18 1    
    35   17   81 1    
    36   17   82 1    
    37   18   19 1    
    38   18   22 1    
    39   18   83 1    
    40   19   20 am   BACKBONE|DICT|INTERRES
    41   19   21 2    
    42   20   84 1    
    43   20   85 1    
    44   22   23 am   BACKBONE|DICT|INTERRES
    45   22   86 1    
    46   23   24 2    
    47   23   25 1    
    48   25   26 1    
    49   25   27 1    
    50   25   87 1    
    51   26   88 1    
    52   26   89 1    
    53   26   90 1    
    54   27   28 am   BACKBONE|DICT|INTERRES
    55   27   91 1    
    56   28   29 2    
    57   28   30 1    
    58   30   31 1    
    59   30   32 1    
    60   30   92 1    
    61   31   93 1    
    62   31   94 1    
    63   31   95 1    
    64   32   33 am   BACKBONE|DICT|INTERRES
    65   32   96 1    
    66   33   34 2    
    67   33   35 1    
    68   35   36 1    
    69   35   37 1    
    70   35   97 1    
    71   36   98 1    
    72   36   99 1    
    73   36  100 1    
    74   37   38 am   BACKBONE|DICT|INTERRES
    75   37  101 1    
    76   38   39 2    
    77   38   40 1    
    78   40   41 1    
    79   40   42 1    
    80   40  102 1    
    81   41  103 1    
    82   41  104 1    
    83   41  105 1    
    84   42   43 am   BACKBONE|DICT|INTERRES
    85   42  106 1    
    86   43   44 2    
    87   43   45 1    
    88   45   46 1    
    89   45   49 1    
    90   45  107 1    
    91   46   47 1    
    92   46  108 1    
    93   46  109 1    
    94   47   48 1    
    95   48  110 1    
    96   48  111 1    
    97   49   50 am   BACKBONE|DICT|INTERRES
    98   49  112 1    
    99   50   51 2    
   100   50   52 1    
   101   52   53 1    
   102   52   54 1    
   103   52  113 1    
   104   53  114 1    
   105   53  115 1    
   106   53  116 1    
   107   54   55 am   BACKBONE|DICT|INTERRES
   108   54  117 1    
   109   55   56 2    
   110   55   57 1    
   111   57   58 1    
   112   57   59 1    
   113   57  118 1    
   114   58  119 1    
   115   58  120 1    
   116   58  121 1    
   117   59   60 am   BACKBONE|DICT|INTERRES
   118   59  122 1    
   119   60   61 2    
   120   60   62 1    
   121   62   63 1    
   122   62   64 1    
   123   62  123 1    
   124   63  124 1    
   125   63  125 1    
   126   63  126 1    
   127   64   65 am   BACKBONE|DICT|INTERRES
   128   64  127 1    
   129   65   66 2    
@<TRIPOS>SUBSTRUCTURE
     1 UNK         1 GROUP             0       ****    0 ROOT    
