@<TRIPOS>MOLECULE
3R134
127   129    1
SMALL
USER_CHARGES


@<TRIPOS>ATOM
      1 CA         37.1657  -45.4523  -57.3189 C.3       0 UNK        -0.1968 
      2 C          35.8219  -46.0033  -56.8669 C.2       0 UNK         0.4852 
      3 O          35.6606  -47.2212  -56.7728 O.2       0 UNK        -0.5359 
      4 N          34.8598  -45.1168  -56.5705 N.am      1 UNK        -0.4300 
      5 CA         33.4957  -45.4485  -56.1353 C.3       1 UNK         0.0863 
      6 C6         32.5548  -44.2144  -56.0616 C.3       11 UNK        -0.0953 
      7 S7         33.3034  -42.6547  -55.4608 S.3       11 UNK        -0.2369 
      8 C8         33.3200  -42.8097  -53.6399 C.3       11 UNK         0.0226 
      9 C9         31.9939  -43.2356  -53.0180 C.ar      11 UNK        -0.0699 
     10 C10        31.9875  -44.2095  -52.0153 C.ar      11 UNK        -0.0804 
     11 C11        30.7883  -44.6301  -51.4348 C.ar      11 UNK        -0.0871 
     12 C12        29.5856  -44.0548  -51.8513 C.ar      11 UNK        -0.1008 
     13 C13        29.5763  -43.0795  -52.8512 C.ar      11 UNK        -0.0735 
     14 C14        30.7836  -42.6599  -53.4183 C.ar      11 UNK        -0.0945 
     15 C15        28.2546  -42.5064  -53.3370 C.3       11 UNK         0.0169 
     16 S16        27.3582  -43.7148  -54.3620 S.3       11 UNK        -0.2669 
     17 C17        28.4938  -43.9001  -55.7820 C.3       11 UNK        -0.0850 
     18 CA         27.7497  -43.8797  -57.1395 C.3       10 UNK         0.0855 
     19 C          28.7505  -43.8131  -58.3324 C.2       10 UNK         0.5543 
     20 N          28.7036  -44.7085  -59.3118 N.am      10 UNK        -0.7343 
     21 O          29.5884  -42.9161  -58.3752 O.2       10 UNK        -0.5027 
     22 N          26.7715  -44.9742  -57.2287 N.am      10 UNK        -0.4495 
     23 C          25.6627  -44.9442  -57.9789 C.2       10 UNK         0.4903 
     24 O          25.2911  -43.9532  -58.6101 O.2       10 UNK        -0.4860 
     25 CA         24.8465  -46.2521  -58.0478 C.3       9 UNK         0.0227 
     26 CB         23.8604  -46.2813  -59.2345 C.3       9 UNK        -0.1964 
     27 N          25.6869  -47.4574  -58.0479 N.am      9 UNK        -0.4231 
     28 C          26.6793  -47.7535  -58.9050 C.2       9 UNK         0.5014 
     29 O          26.9804  -47.0403  -59.8631 O.2       9 UNK        -0.5270 
     30 CA         27.5100  -49.0225  -58.6385 C.3       8 UNK         0.0284 
     31 CB         29.0164  -48.7079  -58.6618 C.3       8 UNK        -0.1977 
     32 N          27.1737  -49.6393  -57.3531 N.am      8 UNK        -0.4342 
     33 C          26.3864  -50.7135  -57.1994 C.2       8 UNK         0.5039 
     34 O          25.9481  -51.3815  -58.1363 O.2       8 UNK        -0.5547 
     35 CA         25.9821  -51.0908  -55.7611 C.3       7 UNK         0.0281 
     36 CB         26.8227  -52.2707  -55.2478 C.3       7 UNK        -0.1963 
     37 N          26.0627  -49.9660  -54.8198 N.am      7 UNK        -0.4444 
     38 C          25.2489  -48.8983  -54.8648 C.2       7 UNK         0.5104 
     39 O          24.3441  -48.7755  -55.6896 O.2       7 UNK        -0.5100 
     40 CA         25.5064  -47.7434  -53.8803 C.3       6 UNK         0.0396 
     41 CB         24.5483  -47.8360  -52.6831 C.3       6 UNK        -0.1801 
     42 N          26.8838  -47.6645  -53.3917 N.am      6 UNK        -0.4747 
     43 C          27.9670  -47.4486  -54.1516 C.2       6 UNK         0.5012 
     44 O          27.9143  -47.3045  -55.3778 O.2       6 UNK        -0.5003 
     45 CA         29.3403  -47.4375  -53.4398 C.3       5 UNK         0.0782 
     46 C46        29.2596  -47.5473  -51.8880 C.3       11 UNK        -0.0868 
     47 S47        30.8931  -47.3770  -51.0897 S.3       11 UNK        -0.2515 
     48 C48        30.7950  -45.7097  -50.3635 C.3       11 UNK         0.0199 
     49 N          30.2261  -48.4457  -54.0320 N.am      5 UNK        -0.4607 
     50 C          30.0019  -49.7647  -54.0923 C.2       4 UNK         0.5031 
     51 O          28.9842  -50.2989  -53.6487 O.2       4 UNK        -0.5119 
     52 CA         31.0645  -50.6467  -54.7636 C.3       4 UNK         0.0263 
     53 CB         30.7734  -50.8006  -56.2651 C.3       4 UNK        -0.1967 
     54 N          32.4406  -50.1683  -54.5830 N.am      4 UNK        -0.4237 
     55 C          33.5051  -50.9835  -54.5026 C.2       3 UNK         0.4908 
     56 O          33.4180  -52.2127  -54.5015 O.2       3 UNK        -0.5102 
     57 CA         34.9135  -50.3569  -54.4428 C.3       3 UNK         0.0241 
     58 CB         35.6342  -50.5362  -55.7893 C.3       3 UNK        -0.1971 
     59 N          34.9211  -48.9377  -54.0903 N.am      3 UNK        -0.4139 
     60 C          34.6556  -48.4562  -52.8680 C.2       2 UNK         0.5016 
     61 O          34.4706  -49.1713  -51.8829 O.2       2 UNK        -0.5319 
     62 CA         34.5563  -46.9262  -52.7098 C.3       2 UNK         0.0286 
     63 CB         35.7548  -46.3783  -51.9188 C.3       2 UNK        -0.1963 
     64 N          34.4341  -46.1766  -53.9669 N.am      2 UNK        -0.4790 
     65 C          33.4277  -46.2910  -54.8462 C.2       1 UNK         0.5024 
     66 O          32.4919  -47.0759  -54.7005 O.2       1 UNK        -0.4888 
     67 H67        37.9526  -45.7803  -56.6402 H         1 UNK         0.0892 
     68 H68        37.4027  -45.8177  -58.3176 H         1 UNK         0.0892 
     69 H69        37.1722  -44.3627  -57.3456 H         1 UNK         0.0892 
     70 H70        35.0496  -44.1271  -56.6521 H         1 UNK         0.3107 
     71 H71        33.0909  -46.1014  -56.9120 H         1 UNK         0.0773 
     72 H72        32.2006  -43.9991  -57.0710 H         1 UNK         0.0680 
     73 H73        31.6460  -44.4327  -55.4982 H         1 UNK         0.0680 
     74 H74        33.6023  -41.8448  -53.2174 H         1 UNK         0.0650 
     75 H75        34.1150  -43.5019  -53.3627 H         1 UNK         0.0650 
     76 H76        32.9193  -44.6449  -51.6855 H         1 UNK         0.1397 
     77 H77        28.6505  -44.3768  -51.4139 H         1 UNK         0.1363 
     78 H78        30.7813  -41.9016  -54.1891 H         1 UNK         0.1355 
     79 H79        28.4089  -41.5876  -53.9050 H         1 UNK         0.0707 
     80 H80        27.6361  -42.2383  -52.4792 H         1 UNK         0.0707 
     81 H81        29.2284  -43.0942  -55.7518 H         1 UNK         0.1034 
     82 H82        29.0591  -44.8258  -55.6650 H         1 UNK         0.1034 
     83 H83        27.1978  -42.9387  -57.1809 H         1 UNK         0.0482 
     84 H84        28.0038  -45.4427  -59.3300 H         1 UNK         0.3460 
     85 H85        29.3605  -44.6324  -60.0712 H         1 UNK         0.3460 
     86 H86        27.0155  -45.8244  -56.7350 H         1 UNK         0.2989 
     87 H87        24.2594  -46.2902  -57.1292 H         1 UNK         0.0559 
     88 H88        23.1497  -45.4561  -59.1747 H         1 UNK         0.0848 
     89 H89        23.2812  -47.2045  -59.2461 H         1 UNK         0.0848 
     90 H90        24.3769  -46.1969  -60.1913 H         1 UNK         0.0848 
     91 H91        25.4835  -48.1152  -57.3041 H         1 UNK         0.3144 
     92 H92        27.2989  -49.7107  -59.4593 H         1 UNK         0.0727 
     93 H93        29.3149  -48.0836  -57.8183 H         1 UNK         0.0790 
     94 H94        29.3029  -48.1831  -59.5742 H         1 UNK         0.0790 
     95 H95        29.6016  -49.6256  -58.6360 H         1 UNK         0.0790 
     96 H96        27.4737  -49.1324  -56.5274 H         1 UNK         0.3215 
     97 H97        24.9398  -51.4161  -55.7961 H         1 UNK         0.0863 
     98 H98        26.5358  -52.5547  -54.2353 H         1 UNK         0.0808 
     99 H99        27.8875  -52.0425  -55.2440 H         1 UNK         0.0808 
    100 H100       26.6848  -53.1479  -55.8812 H         1 UNK         0.0808 
    101 H101       26.8193  -49.9848  -54.1447 H         1 UNK         0.3118 
    102 H102       25.2966  -46.8127  -54.4122 H         1 UNK         0.0546 
    103 H103       24.7262  -48.7345  -52.0908 H         1 UNK         0.0828 
    104 H104       23.5097  -47.8660  -53.0159 H         1 UNK         0.0828 
    105 H105       24.6491  -46.9725  -52.0253 H         1 UNK         0.0828 
    106 H106       27.0139  -47.8068  -52.4007 H         1 UNK         0.3005 
    107 H107       29.7813  -46.4680  -53.6791 H         1 UNK         0.1257 
    108 H108       28.5900  -46.7910  -51.4765 H         1 UNK         0.0775 
    109 H109       28.8493  -48.5130  -51.5877 H         1 UNK         0.0775 
    110 H110       29.9098  -45.6350  -49.7299 H         1 UNK         0.0840 
    111 H111       31.6513  -45.5631  -49.7035 H         1 UNK         0.0840 
    112 H112       31.0788  -48.0551  -54.4256 H         1 UNK         0.2987 
    113 H113       30.9634  -51.6290  -54.2964 H         1 UNK         0.0785 
    114 H114       29.7300  -51.0584  -56.4485 H         1 UNK         0.0798 
    115 H115       31.3832  -51.5885  -56.7073 H         1 UNK         0.0798 
    116 H116       30.9870  -49.8753  -56.7994 H         1 UNK         0.0798 
    117 H117       32.5853  -49.1660  -54.5499 H         1 UNK         0.3079 
    118 H118       35.4772  -50.8995  -53.6808 H         1 UNK         0.0794 
    119 H119       36.6544  -50.1539  -55.7483 H         1 UNK         0.0786 
    120 H120       35.1149  -50.0164  -56.5957 H         1 UNK         0.0786 
    121 H121       35.6945  -51.5899  -56.0654 H         1 UNK         0.0786 
    122 H122       35.0790  -48.2819  -54.8471 H         1 UNK         0.3032 
    123 H123       33.6500  -46.7482  -52.1297 H         1 UNK         0.1094 
    124 H124       36.6911  -46.5139  -52.4615 H         1 UNK         0.0794 
    125 H125       35.6388  -45.3156  -51.7054 H         1 UNK         0.0794 
    126 H126       35.8571  -46.8886  -50.9599 H         1 UNK         0.0794 
    127 H127       35.1838  -45.5378  -54.1890 H         1 UNK         0.3016 
@<TRIPOS>BOND
     1    1    2 1    
     2    1   67 1    
     3    1   68 1    
     4    1   69 1    
     5    2    3 2    
     6    2    4 am   BACKBONE|DICT|INTERRES
     7    4    5 1    
     8    4   70 1    
     9    5    6 1    
    10    5   65 1    
    11    5   71 1    
    12    6    7 1    
    13    6   72 1    
    14    6   73 1    
    15    7    8 1    
    16    8    9 1    
    17    8   74 1    
    18    8   75 1    
    19    9   10 ar   
    20    9   14 ar   
    21   10   11 ar   
    22   10   76 1    
    23   11   12 ar   
    24   11   48 1    
    25   12   13 ar   
    26   12   77 1    
    27   13   14 ar   
    28   13   15 1    
    29   14   78 1    
    30   15   16 1    
    31   15   79 1    
    32   15   80 1    
    33   16   17 1    
    34   17   18 1    
    35   17   81 1    
    36   17   82 1    
    37   18   19 1    
    38   18   22 1    
    39   18   83 1    
    40   19   20 am   BACKBONE|DICT|INTERRES
    41   19   21 2    
    42   20   84 1    
    43   20   85 1    
    44   22   23 am   BACKBONE|DICT|INTERRES
    45   22   86 1    
    46   23   24 2    
    47   23   25 1    
    48   25   26 1    
    49   25   27 1    
    50   25   87 1    
    51   26   88 1    
    52   26   89 1    
    53   26   90 1    
    54   27   28 am   BACKBONE|DICT|INTERRES
    55   27   91 1    
    56   28   29 2    
    57   28   30 1    
    58   30   31 1    
    59   30   32 1    
    60   30   92 1    
    61   31   93 1    
    62   31   94 1    
    63   31   95 1    
    64   32   33 am   BACKBONE|DICT|INTERRES
    65   32   96 1    
    66   33   34 2    
    67   33   35 1    
    68   35   36 1    
    69   35   37 1    
    70   35   97 1    
    71   36   98 1    
    72   36   99 1    
    73   36  100 1    
    74   37   38 am   BACKBONE|DICT|INTERRES
    75   37  101 1    
    76   38   39 2    
    77   38   40 1    
    78   40   41 1    
    79   40   42 1    
    80   40  102 1    
    81   41  103 1    
    82   41  104 1    
    83   41  105 1    
    84   42   43 am   BACKBONE|DICT|INTERRES
    85   42  106 1    
    86   43   44 2    
    87   43   45 1    
    88   45   46 1    
    89   45   49 1    
    90   45  107 1    
    91   46   47 1    
    92   46  108 1    
    93   46  109 1    
    94   47   48 1    
    95   48  110 1    
    96   48  111 1    
    97   49   50 am   BACKBONE|DICT|INTERRES
    98   49  112 1    
    99   50   51 2    
   100   50   52 1    
   101   52   53 1    
   102   52   54 1    
   103   52  113 1    
   104   53  114 1    
   105   53  115 1    
   106   53  116 1    
   107   54   55 am   BACKBONE|DICT|INTERRES
   108   54  117 1    
   109   55   56 2    
   110   55   57 1    
   111   57   58 1    
   112   57   59 1    
   113   57  118 1    
   114   58  119 1    
   115   58  120 1    
   116   58  121 1    
   117   59   60 am   BACKBONE|DICT|INTERRES
   118   59  122 1    
   119   60   61 2    
   120   60   62 1    
   121   62   63 1    
   122   62   64 1    
   123   62  123 1    
   124   63  124 1    
   125   63  125 1    
   126   63  126 1    
   127   64   65 am   BACKBONE|DICT|INTERRES
   128   64  127 1    
   129   65   66 2    
@<TRIPOS>SUBSTRUCTURE
     1 UNK         1 GROUP             0       ****    0 ROOT    
