@<TRIPOS>MOLECULE
3R134
127   129    1
SMALL
USER_CHARGES


@<TRIPOS>ATOM
      1 CA         35.8651  -45.2036  -58.7919 C.3       0 UNK        -0.1968 
      2 C          34.9068  -45.6933  -57.7167 C.2       0 UNK         0.4852 
      3 O          33.9382  -46.3857  -58.0296 O.2       0 UNK        -0.5359 
      4 N          35.1788  -45.3583  -56.4489 N.am      1 UNK        -0.4300 
      5 CA         34.3682  -45.6747  -55.2613 C.3       1 UNK         0.0863 
      6 C6         34.6502  -44.6727  -54.1052 C.3       11 UNK        -0.0953 
      7 S7         34.5639  -42.9225  -54.6254 S.3       11 UNK        -0.2369 
      8 C8         33.3912  -42.2058  -53.4261 C.3       11 UNK         0.0226 
      9 C9         31.9482  -42.6817  -53.5795 C.ar      11 UNK        -0.0699 
     10 C10        31.1532  -42.8224  -52.4373 C.ar      11 UNK        -0.0804 
     11 C11        29.8164  -43.2171  -52.5414 C.ar      11 UNK        -0.0871 
     12 C12        29.2758  -43.4780  -53.8024 C.ar      11 UNK        -0.1008 
     13 C13        30.0593  -43.3613  -54.9522 C.ar      11 UNK        -0.0735 
     14 C14        31.3888  -42.9462  -54.8360 C.ar      11 UNK        -0.0945 
     15 C15        29.4987  -43.7464  -56.3123 C.3       11 UNK         0.0169 
     16 S16        28.7035  -42.3594  -57.1860 S.3       11 UNK        -0.2669 
     17 C17        26.9004  -42.4027  -56.8377 C.3       11 UNK        -0.0850 
     18 CA         26.2368  -43.7033  -56.2827 C.3       10 UNK         0.0855 
     19 C          24.7145  -43.5216  -55.9969 C.2       10 UNK         0.5543 
     20 N          24.3347  -42.4791  -55.2693 N.am      10 UNK        -0.7343 
     21 O          23.8693  -44.3230  -56.3923 O.2       10 UNK        -0.5027 
     22 N          26.5274  -44.9208  -57.0554 N.am      10 UNK        -0.4495 
     23 C          26.2773  -45.1544  -58.3484 C.2       10 UNK         0.4903 
     24 O          25.8324  -44.3120  -59.1302 O.2       10 UNK        -0.4860 
     25 CA         26.5393  -46.5942  -58.8359 C.3       9 UNK         0.0227 
     26 CB         26.6270  -46.7087  -60.3732 C.3       9 UNK        -0.1964 
     27 N          27.6857  -47.2457  -58.1858 N.am      9 UNK        -0.4231 
     28 C          28.9869  -46.9291  -58.2964 C.2       9 UNK         0.5014 
     29 O          29.4027  -45.9883  -58.9733 O.2       9 UNK        -0.5270 
     30 CA         30.0134  -47.8060  -57.5426 C.3       8 UNK         0.0284 
     31 CB         30.8435  -46.9795  -56.5478 C.3       8 UNK        -0.1977 
     32 N          29.4234  -48.9310  -56.8176 N.am      8 UNK        -0.4342 
     33 C          28.9638  -50.0618  -57.3661 C.2       8 UNK         0.5039 
     34 O          29.0327  -50.3239  -58.5671 O.2       8 UNK        -0.5547 
     35 CA         28.2495  -51.0354  -56.4139 C.3       7 UNK         0.0281 
     36 CB         29.2603  -51.9536  -55.7085 C.3       7 UNK        -0.1963 
     37 N          27.4336  -50.3368  -55.4143 N.am      7 UNK        -0.4444 
     38 C          26.3260  -49.6330  -55.6912 C.2       7 UNK         0.5104 
     39 O          25.8574  -49.5097  -56.8224 O.2       7 UNK        -0.5100 
     40 CA         25.6476  -48.9144  -54.5125 C.3       6 UNK         0.0396 
     41 CB         24.7373  -49.8814  -53.7395 C.3       6 UNK        -0.1801 
     42 N          26.6091  -48.3017  -53.5927 N.am      6 UNK        -0.4747 
     43 C          27.3805  -47.2472  -53.8973 C.2       6 UNK         0.5012 
     44 O          27.3439  -46.6628  -54.9798 O.2       6 UNK        -0.5003 
     45 CA         28.3935  -46.7953  -52.8256 C.3       5 UNK         0.0782 
     46 C46        27.7134  -45.8466  -51.8090 C.3       11 UNK        -0.0868 
     47 S47        28.9125  -45.0658  -50.6759 S.3       11 UNK        -0.2515 
     48 C48        28.9568  -43.3513  -51.2921 C.3       11 UNK         0.0199 
     49 N          29.0630  -47.9226  -52.1627 N.am      5 UNK        -0.4607 
     50 C          29.7702  -48.8690  -52.7904 C.2       4 UNK         0.5031 
     51 O          29.9026  -48.9241  -54.0136 O.2       4 UNK        -0.5119 
     52 CA         30.3709  -49.9693  -51.9138 C.3       4 UNK         0.0263 
     53 CB         29.2875  -50.9976  -51.5302 C.3       4 UNK        -0.1967 
     54 N          31.4483  -50.6225  -52.6518 N.am      4 UNK        -0.4237 
     55 C          32.3771  -51.4318  -52.1364 C.2       3 UNK         0.4908 
     56 O          32.4616  -51.6962  -50.9362 O.2       3 UNK        -0.5102 
     57 CA         33.3790  -52.0740  -53.1126 C.3       3 UNK         0.0241 
     58 CB         32.6981  -53.1340  -54.0023 C.3       3 UNK        -0.1971 
     59 N          34.1680  -51.1259  -53.9117 N.am      3 UNK        -0.4139 
     60 C          33.7517  -50.2640  -54.8501 C.2       2 UNK         0.5016 
     61 O          32.5758  -50.1071  -55.1825 O.2       2 UNK        -0.5319 
     62 CA         34.8565  -49.4955  -55.5902 C.3       2 UNK         0.0286 
     63 CB         35.1107  -50.1247  -56.9696 C.3       2 UNK        -0.1963 
     64 N          34.5330  -48.0814  -55.7709 N.am      2 UNK        -0.4790 
     65 C          34.5628  -47.1474  -54.8124 C.2       1 UNK         0.5024 
     66 O          34.7959  -47.4108  -53.6309 O.2       1 UNK        -0.4888 
     67 H67        36.6709  -44.5989  -58.3759 H         1 UNK         0.0892 
     68 H68        36.3098  -46.0516  -59.3120 H         1 UNK         0.0892 
     69 H69        35.3293  -44.5979  -59.5224 H         1 UNK         0.0892 
     70 H70        36.0009  -44.8032  -56.2589 H         1 UNK         0.3107 
     71 H71        33.3164  -45.5684  -55.5340 H         1 UNK         0.0773 
     72 H72        33.9472  -44.8390  -53.2867 H         1 UNK         0.0680 
     73 H73        35.6459  -44.8372  -53.6888 H         1 UNK         0.0680 
     74 H74        33.4053  -41.1213  -53.5395 H         1 UNK         0.0650 
     75 H75        33.7590  -42.4153  -52.4203 H         1 UNK         0.0650 
     76 H76        31.5735  -42.6155  -51.4623 H         1 UNK         0.1397 
     77 H77        28.2496  -43.7954  -53.8821 H         1 UNK         0.1363 
     78 H78        31.9898  -42.8424  -55.7287 H         1 UNK         0.1355 
     79 H79        30.3161  -44.0878  -56.9476 H         1 UNK         0.0707 
     80 H80        28.8455  -44.6062  -56.2081 H         1 UNK         0.0707 
     81 H81        26.7236  -41.5804  -56.1436 H         1 UNK         0.1034 
     82 H82        26.3954  -42.1051  -57.7581 H         1 UNK         0.1034 
     83 H83        26.6630  -43.9024  -55.3037 H         1 UNK         0.0482 
     84 H84        23.3537  -42.3590  -55.0698 H         1 UNK         0.3460 
     85 H85        25.0007  -41.8176  -54.9033 H         1 UNK         0.3460 
     86 H86        26.8557  -45.6974  -56.4863 H         1 UNK         0.2989 
     87 H87        25.6666  -47.1691  -58.5230 H         1 UNK         0.0559 
     88 H88        25.7018  -46.3735  -60.8434 H         1 UNK         0.0848 
     89 H89        26.7924  -47.7397  -60.6859 H         1 UNK         0.0848 
     90 H90        27.4347  -46.0996  -60.7798 H         1 UNK         0.0848 
     91 H91        27.4489  -48.0314  -57.5932 H         1 UNK         0.3144 
     92 H92        30.6970  -48.2089  -58.2926 H         1 UNK         0.0727 
     93 H93        30.2229  -46.5493  -55.7619 H         1 UNK         0.0790 
     94 H94        31.3637  -46.1660  -57.0533 H         1 UNK         0.0790 
     95 H95        31.6037  -47.5958  -56.0676 H         1 UNK         0.0790 
     96 H96        29.4110  -48.8529  -55.8016 H         1 UNK         0.3215 
     97 H97        27.5837  -51.6587  -57.0150 H         1 UNK         0.0863 
     98 H98        28.7610  -52.6848  -55.0727 H         1 UNK         0.0808 
     99 H99        29.9553  -51.3869  -55.0893 H         1 UNK         0.0808 
    100 H100       29.8547  -52.5079  -56.4359 H         1 UNK         0.0808 
    101 H101       27.7784  -50.3332  -54.4663 H         1 UNK         0.3118 
    102 H102       25.0225  -48.1190  -54.9250 H         1 UNK         0.0546 
    103 H103       25.3023  -50.6915  -53.2768 H         1 UNK         0.0828 
    104 H104       24.0004  -50.3364  -54.4031 H         1 UNK         0.0828 
    105 H105       24.1860  -49.3647  -52.9538 H         1 UNK         0.0828 
    106 H106       26.7061  -48.7213  -52.6792 H         1 UNK         0.3005 
    107 H107       29.1706  -46.2388  -53.3536 H         1 UNK         0.1257 
    108 H108       26.9893  -46.3956  -51.2040 H         1 UNK         0.0775 
    109 H109       27.1388  -45.0703  -52.3166 H         1 UNK         0.0775 
    110 H110       27.9442  -42.9939  -51.4852 H         1 UNK         0.0840 
    111 H111       29.3508  -42.7106  -50.5016 H         1 UNK         0.0840 
    112 H112       29.0013  -47.9409  -51.1548 H         1 UNK         0.2987 
    113 H113       30.7857  -49.5099  -51.0142 H         1 UNK         0.0785 
    114 H114       28.4557  -50.5225  -51.0087 H         1 UNK         0.0798 
    115 H115       29.6821  -51.7647  -50.8640 H         1 UNK         0.0798 
    116 H116       28.8809  -51.4994  -52.4092 H         1 UNK         0.0798 
    117 H117       31.5073  -50.3785  -53.6419 H         1 UNK         0.3079 
    118 H118       34.1068  -52.6026  -52.4945 H         1 UNK         0.0794 
    119 H119       33.4326  -53.6902  -54.5846 H         1 UNK         0.0786 
    120 H120       31.9884  -52.6914  -54.7004 H         1 UNK         0.0786 
    121 H121       32.1493  -53.8573  -53.3976 H         1 UNK         0.0786 
    122 H122       35.1592  -51.1470  -53.7149 H         1 UNK         0.3032 
    123 H123       35.7806  -49.5554  -55.0104 H         1 UNK         0.1094 
    124 H124       34.2256  -50.0687  -57.6052 H         1 UNK         0.0794 
    125 H125       35.9291  -49.6263  -57.4896 H         1 UNK         0.0794 
    126 H126       35.3793  -51.1779  -56.8767 H         1 UNK         0.0794 
    127 H127       34.2858  -47.7762  -56.7082 H         1 UNK         0.3016 
@<TRIPOS>BOND
     1    1    2 1    
     2    1   67 1    
     3    1   68 1    
     4    1   69 1    
     5    2    3 2    
     6    2    4 am   BACKBONE|DICT|INTERRES
     7    4    5 1    
     8    4   70 1    
     9    5    6 1    
    10    5   65 1    
    11    5   71 1    
    12    6    7 1    
    13    6   72 1    
    14    6   73 1    
    15    7    8 1    
    16    8    9 1    
    17    8   74 1    
    18    8   75 1    
    19    9   10 ar   
    20    9   14 ar   
    21   10   11 ar   
    22   10   76 1    
    23   11   12 ar   
    24   11   48 1    
    25   12   13 ar   
    26   12   77 1    
    27   13   14 ar   
    28   13   15 1    
    29   14   78 1    
    30   15   16 1    
    31   15   79 1    
    32   15   80 1    
    33   16   17 1    
    34   17   18 1    
    35   17   81 1    
    36   17   82 1    
    37   18   19 1    
    38   18   22 1    
    39   18   83 1    
    40   19   20 am   BACKBONE|DICT|INTERRES
    41   19   21 2    
    42   20   84 1    
    43   20   85 1    
    44   22   23 am   BACKBONE|DICT|INTERRES
    45   22   86 1    
    46   23   24 2    
    47   23   25 1    
    48   25   26 1    
    49   25   27 1    
    50   25   87 1    
    51   26   88 1    
    52   26   89 1    
    53   26   90 1    
    54   27   28 am   BACKBONE|DICT|INTERRES
    55   27   91 1    
    56   28   29 2    
    57   28   30 1    
    58   30   31 1    
    59   30   32 1    
    60   30   92 1    
    61   31   93 1    
    62   31   94 1    
    63   31   95 1    
    64   32   33 am   BACKBONE|DICT|INTERRES
    65   32   96 1    
    66   33   34 2    
    67   33   35 1    
    68   35   36 1    
    69   35   37 1    
    70   35   97 1    
    71   36   98 1    
    72   36   99 1    
    73   36  100 1    
    74   37   38 am   BACKBONE|DICT|INTERRES
    75   37  101 1    
    76   38   39 2    
    77   38   40 1    
    78   40   41 1    
    79   40   42 1    
    80   40  102 1    
    81   41  103 1    
    82   41  104 1    
    83   41  105 1    
    84   42   43 am   BACKBONE|DICT|INTERRES
    85   42  106 1    
    86   43   44 2    
    87   43   45 1    
    88   45   46 1    
    89   45   49 1    
    90   45  107 1    
    91   46   47 1    
    92   46  108 1    
    93   46  109 1    
    94   47   48 1    
    95   48  110 1    
    96   48  111 1    
    97   49   50 am   BACKBONE|DICT|INTERRES
    98   49  112 1    
    99   50   51 2    
   100   50   52 1    
   101   52   53 1    
   102   52   54 1    
   103   52  113 1    
   104   53  114 1    
   105   53  115 1    
   106   53  116 1    
   107   54   55 am   BACKBONE|DICT|INTERRES
   108   54  117 1    
   109   55   56 2    
   110   55   57 1    
   111   57   58 1    
   112   57   59 1    
   113   57  118 1    
   114   58  119 1    
   115   58  120 1    
   116   58  121 1    
   117   59   60 am   BACKBONE|DICT|INTERRES
   118   59  122 1    
   119   60   61 2    
   120   60   62 1    
   121   62   63 1    
   122   62   64 1    
   123   62  123 1    
   124   63  124 1    
   125   63  125 1    
   126   63  126 1    
   127   64   65 am   BACKBONE|DICT|INTERRES
   128   64  127 1    
   129   65   66 2    
@<TRIPOS>SUBSTRUCTURE
     1 UNK         1 GROUP             0       ****    0 ROOT    
