@<TRIPOS>MOLECULE
3R134
127   129    1
SMALL
USER_CHARGES


@<TRIPOS>ATOM
      1 CA         34.1921  -47.1499  -58.4365 C.3       0 UNK        -0.1968 
      2 C          34.0843  -46.9592  -56.9321 C.2       0 UNK         0.4852 
      3 O          34.0545  -47.9449  -56.1955 O.2       0 UNK        -0.5359 
      4 N          34.0417  -45.7012  -56.4704 N.am      1 UNK        -0.4300 
      5 CA         33.8571  -45.2592  -55.0756 C.3       1 UNK         0.0863 
      6 C6         33.8666  -43.7133  -54.9914 C.3       11 UNK        -0.0953 
      7 S7         32.4002  -42.9717  -55.7824 S.3       11 UNK        -0.2369 
      8 C8         31.6358  -42.0919  -54.3828 C.3       11 UNK         0.0226 
      9 C9         30.8028  -43.0145  -53.5036 C.ar      11 UNK        -0.0699 
     10 C10        31.3901  -43.7254  -52.4515 C.ar      11 UNK        -0.0804 
     11 C11        30.6125  -44.5360  -51.6190 C.ar      11 UNK        -0.0871 
     12 C12        29.2358  -44.6279  -51.8434 C.ar      11 UNK        -0.1008 
     13 C13        28.6392  -43.9490  -52.9106 C.ar      11 UNK        -0.0735 
     14 C14        29.4280  -43.1308  -53.7265 C.ar      11 UNK        -0.0945 
     15 C15        27.1399  -44.0980  -53.1528 C.3       11 UNK         0.0169 
     16 S16        26.6536  -44.2827  -54.9065 S.3       11 UNK        -0.2669 
     17 C17        27.8096  -45.5255  -55.5945 C.3       11 UNK        -0.0850 
     18 CA         28.2206  -45.1611  -57.0456 C.3       10 UNK         0.0855 
     19 C          29.3927  -46.0468  -57.5508 C.2       10 UNK         0.5543 
     20 N          30.6149  -45.7348  -57.1424 N.am      10 UNK        -0.7343 
     21 O          29.2120  -47.0114  -58.2905 O.2       10 UNK        -0.5027 
     22 N          27.0598  -45.1749  -57.9509 N.am      10 UNK        -0.4495 
     23 C          27.0284  -44.5890  -59.1559 C.2       10 UNK         0.4903 
     24 O          27.9749  -43.9548  -59.6262 O.2       10 UNK        -0.4860 
     25 CA         25.7062  -44.6729  -59.9501 C.3       9 UNK         0.0227 
     26 CB         25.9003  -44.4704  -61.4692 C.3       9 UNK        -0.1964 
     27 N          24.9168  -45.8780  -59.6668 N.am      9 UNK        -0.4231 
     28 C          25.2405  -47.1485  -59.9459 C.2       9 UNK         0.5014 
     29 O          26.2509  -47.4997  -60.5581 O.2       9 UNK        -0.5270 
     30 CA         24.2650  -48.2188  -59.4218 C.3       8 UNK         0.0284 
     31 CB         23.7620  -49.1210  -60.5618 C.3       8 UNK        -0.1977 
     32 N          24.8841  -49.0445  -58.3820 N.am      8 UNK        -0.4342 
     33 C          25.3622  -48.5775  -57.2211 C.2       8 UNK         0.5039 
     34 O          25.2830  -47.3924  -56.8823 O.2       8 UNK        -0.5547 
     35 CA         26.0589  -49.6057  -56.3089 C.3       7 UNK         0.0281 
     36 CB         27.3756  -50.0855  -56.9408 C.3       7 UNK        -0.1963 
     37 N          26.3458  -49.0350  -54.9906 N.am      7 UNK        -0.4444 
     38 C          25.4291  -48.8644  -54.0268 C.2       7 UNK         0.5104 
     39 O          24.2897  -49.3301  -54.0903 O.2       7 UNK        -0.5100 
     40 CA         25.8179  -47.9986  -52.8085 C.3       6 UNK         0.0396 
     41 CB         25.2152  -48.5252  -51.4885 C.3       6 UNK        -0.1801 
     42 N          27.2575  -47.7360  -52.6767 N.am      6 UNK        -0.4747 
     43 C          28.2240  -48.6138  -52.3724 C.2       6 UNK         0.5012 
     44 O          28.0297  -49.8026  -52.1116 O.2       6 UNK        -0.5003 
     45 CA         29.6628  -48.0620  -52.3857 C.3       5 UNK         0.0782 
     46 C46        30.2132  -47.8830  -50.9529 C.3       11 UNK        -0.0868 
     47 S47        31.7911  -46.9672  -50.9444 S.3       11 UNK        -0.2515 
     48 C48        31.2593  -45.2902  -50.4635 C.3       11 UNK         0.0199 
     49 N          30.5205  -48.9053  -53.2163 N.am      5 UNK        -0.4607 
     50 C          30.3834  -49.0291  -54.5399 C.2       4 UNK         0.5031 
     51 O          29.5316  -48.4088  -55.1779 O.2       4 UNK        -0.5119 
     52 CA         31.3411  -49.9980  -55.2589 C.3       4 UNK         0.0263 
     53 CB         31.3164  -49.8164  -56.7883 C.3       4 UNK        -0.1967 
     54 N          32.7266  -49.8797  -54.7907 N.am      4 UNK        -0.4237 
     55 C          33.2328  -50.4914  -53.7118 C.2       3 UNK         0.4908 
     56 O          32.5434  -51.1471  -52.9299 O.2       3 UNK        -0.5102 
     57 CA         34.7412  -50.3779  -53.4455 C.3       3 UNK         0.0241 
     58 CB         35.5001  -51.5118  -54.1590 C.3       3 UNK        -0.1971 
     59 N          35.3210  -49.0816  -53.8145 N.am      3 UNK        -0.4139 
     60 C          36.3634  -48.5258  -53.1750 C.2       2 UNK         0.5016 
     61 O          36.9135  -49.0375  -52.1981 O.2       2 UNK        -0.5319 
     62 CA         36.9174  -47.1868  -53.7040 C.3       2 UNK         0.0286 
     63 CB         38.1953  -47.4237  -54.5256 C.3       2 UNK        -0.1963 
     64 N          35.9642  -46.4344  -54.5193 N.am      2 UNK        -0.4790 
     65 C          34.8550  -45.8478  -54.0505 C.2       1 UNK         0.5024 
     66 O          34.5964  -45.7673  -52.8499 O.2       1 UNK        -0.4888 
     67 H67        35.1177  -47.6698  -58.6816 H         1 UNK         0.0892 
     68 H68        34.1827  -46.2004  -58.9714 H         1 UNK         0.0892 
     69 H69        33.3587  -47.7517  -58.7981 H         1 UNK         0.0892 
     70 H70        34.0876  -44.9443  -57.1382 H         1 UNK         0.3107 
     71 H71        32.8737  -45.6159  -54.7603 H         1 UNK         0.0773 
     72 H72        34.7587  -43.3113  -55.4753 H         1 UNK         0.0680 
     73 H73        33.9222  -43.3702  -53.9580 H         1 UNK         0.0680 
     74 H74        32.4022  -41.5900  -53.7903 H         1 UNK         0.0650 
     75 H75        31.0044  -41.2972  -54.7831 H         1 UNK         0.0650 
     76 H76        32.4518  -43.6419  -52.2677 H         1 UNK         0.1397 
     77 H77        28.6295  -45.2369  -51.1872 H         1 UNK         0.1363 
     78 H78        28.9702  -42.5838  -54.5394 H         1 UNK         0.1355 
     79 H79        26.6393  -43.2162  -52.7513 H         1 UNK         0.0707 
     80 H80        26.7421  -44.9457  -52.5953 H         1 UNK         0.0707 
     81 H81        27.3385  -46.5066  -55.5678 H         1 UNK         0.1034 
     82 H82        28.6943  -45.6063  -54.9624 H         1 UNK         0.1034 
     83 H83        28.5957  -44.1353  -57.0286 H         1 UNK         0.0482 
     84 H84        31.3802  -46.3089  -57.4491 H         1 UNK         0.3460 
     85 H85        30.7849  -44.9368  -56.5500 H         1 UNK         0.3460 
     86 H86        26.2719  -45.7368  -57.6457 H         1 UNK         0.2989 
     87 H87        25.1010  -43.8387  -59.5924 H         1 UNK         0.0559 
     88 H88        26.5701  -45.2174  -61.8960 H         1 UNK         0.0848 
     89 H89        26.3327  -43.4918  -61.6813 H         1 UNK         0.0848 
     90 H90        24.9516  -44.5249  -62.0029 H         1 UNK         0.0848 
     91 H91        24.0763  -45.7210  -59.1268 H         1 UNK         0.3144 
     92 H92        23.3980  -47.7243  -58.9782 H         1 UNK         0.0727 
     93 H93        23.0199  -49.8361  -60.2060 H         1 UNK         0.0790 
     94 H94        24.5756  -49.6819  -61.0238 H         1 UNK         0.0790 
     95 H95        23.2894  -48.5286  -61.3465 H         1 UNK         0.0790 
     96 H96        25.0141  -50.0212  -58.6026 H         1 UNK         0.3215 
     97 H97        25.3956  -50.4644  -56.1844 H         1 UNK         0.0863 
     98 H98        27.9281  -50.7400  -56.2664 H         1 UNK         0.0808 
     99 H99        28.0215  -49.2453  -57.1985 H         1 UNK         0.0808 
    100 H100       27.1955  -50.6461  -57.8585 H         1 UNK         0.0808 
    101 H101       27.2630  -48.6248  -54.8719 H         1 UNK         0.3118 
    102 H102       25.3645  -47.0246  -52.9983 H         1 UNK         0.0546 
    103 H103       24.1258  -48.5420  -51.5359 H         1 UNK         0.0828 
    104 H104       25.4898  -47.8924  -50.6447 H         1 UNK         0.0828 
    105 H105       25.5418  -49.5416  -51.2680 H         1 UNK         0.0828 
    106 H106       27.5325  -46.7908  -52.8997 H         1 UNK         0.3005 
    107 H107       29.6468  -47.0830  -52.8672 H         1 UNK         0.1257 
    108 H108       30.3761  -48.8549  -50.4832 H         1 UNK         0.0775 
    109 H109       29.4949  -47.3617  -50.3178 H         1 UNK         0.0775 
    110 H110       30.5800  -45.3426  -49.6113 H         1 UNK         0.0840 
    111 H111       32.1339  -44.7407  -50.1120 H         1 UNK         0.0840 
    112 H112       31.2059  -49.4808  -52.7435 H         1 UNK         0.2987 
    113 H113       30.9847  -51.0077  -55.0448 H         1 UNK         0.0785 
    114 H114       30.3292  -50.0371  -57.1936 H         1 UNK         0.0798 
    115 H115       32.0236  -50.4826  -57.2823 H         1 UNK         0.0798 
    116 H116       31.5596  -48.7934  -57.0753 H         1 UNK         0.0798 
    117 H117       33.3224  -49.2791  -55.3600 H         1 UNK         0.3079 
    118 H118       34.8596  -50.5193  -52.3687 H         1 UNK         0.0794 
    119 H119       35.4550  -51.4038  -55.2434 H         1 UNK         0.0786 
    120 H120       35.0778  -52.4860  -53.9081 H         1 UNK         0.0786 
    121 H121       36.5504  -51.5316  -53.8677 H         1 UNK         0.0786 
    122 H122       34.9174  -48.5949  -54.6107 H         1 UNK         0.3032 
    123 H123       37.1756  -46.5789  -52.8337 H         1 UNK         0.1094 
    124 H124       38.6446  -46.4824  -54.8427 H         1 UNK         0.0794 
    125 H125       38.9445  -47.9557  -53.9374 H         1 UNK         0.0794 
    126 H126       37.9974  -48.0206  -55.4170 H         1 UNK         0.0794 
    127 H127       36.0951  -46.4641  -55.5201 H         1 UNK         0.3016 
@<TRIPOS>BOND
     1    1    2 1    
     2    1   67 1    
     3    1   68 1    
     4    1   69 1    
     5    2    3 2    
     6    2    4 am   BACKBONE|DICT|INTERRES
     7    4    5 1    
     8    4   70 1    
     9    5    6 1    
    10    5   65 1    
    11    5   71 1    
    12    6    7 1    
    13    6   72 1    
    14    6   73 1    
    15    7    8 1    
    16    8    9 1    
    17    8   74 1    
    18    8   75 1    
    19    9   10 ar   
    20    9   14 ar   
    21   10   11 ar   
    22   10   76 1    
    23   11   12 ar   
    24   11   48 1    
    25   12   13 ar   
    26   12   77 1    
    27   13   14 ar   
    28   13   15 1    
    29   14   78 1    
    30   15   16 1    
    31   15   79 1    
    32   15   80 1    
    33   16   17 1    
    34   17   18 1    
    35   17   81 1    
    36   17   82 1    
    37   18   19 1    
    38   18   22 1    
    39   18   83 1    
    40   19   20 am   BACKBONE|DICT|INTERRES
    41   19   21 2    
    42   20   84 1    
    43   20   85 1    
    44   22   23 am   BACKBONE|DICT|INTERRES
    45   22   86 1    
    46   23   24 2    
    47   23   25 1    
    48   25   26 1    
    49   25   27 1    
    50   25   87 1    
    51   26   88 1    
    52   26   89 1    
    53   26   90 1    
    54   27   28 am   BACKBONE|DICT|INTERRES
    55   27   91 1    
    56   28   29 2    
    57   28   30 1    
    58   30   31 1    
    59   30   32 1    
    60   30   92 1    
    61   31   93 1    
    62   31   94 1    
    63   31   95 1    
    64   32   33 am   BACKBONE|DICT|INTERRES
    65   32   96 1    
    66   33   34 2    
    67   33   35 1    
    68   35   36 1    
    69   35   37 1    
    70   35   97 1    
    71   36   98 1    
    72   36   99 1    
    73   36  100 1    
    74   37   38 am   BACKBONE|DICT|INTERRES
    75   37  101 1    
    76   38   39 2    
    77   38   40 1    
    78   40   41 1    
    79   40   42 1    
    80   40  102 1    
    81   41  103 1    
    82   41  104 1    
    83   41  105 1    
    84   42   43 am   BACKBONE|DICT|INTERRES
    85   42  106 1    
    86   43   44 2    
    87   43   45 1    
    88   45   46 1    
    89   45   49 1    
    90   45  107 1    
    91   46   47 1    
    92   46  108 1    
    93   46  109 1    
    94   47   48 1    
    95   48  110 1    
    96   48  111 1    
    97   49   50 am   BACKBONE|DICT|INTERRES
    98   49  112 1    
    99   50   51 2    
   100   50   52 1    
   101   52   53 1    
   102   52   54 1    
   103   52  113 1    
   104   53  114 1    
   105   53  115 1    
   106   53  116 1    
   107   54   55 am   BACKBONE|DICT|INTERRES
   108   54  117 1    
   109   55   56 2    
   110   55   57 1    
   111   57   58 1    
   112   57   59 1    
   113   57  118 1    
   114   58  119 1    
   115   58  120 1    
   116   58  121 1    
   117   59   60 am   BACKBONE|DICT|INTERRES
   118   59  122 1    
   119   60   61 2    
   120   60   62 1    
   121   62   63 1    
   122   62   64 1    
   123   62  123 1    
   124   63  124 1    
   125   63  125 1    
   126   63  126 1    
   127   64   65 am   BACKBONE|DICT|INTERRES
   128   64  127 1    
   129   65   66 2    
@<TRIPOS>SUBSTRUCTURE
     1 UNK         1 GROUP             0       ****    0 ROOT    
