@<TRIPOS>MOLECULE
3R134
127   129    1
SMALL
USER_CHARGES


@<TRIPOS>ATOM
      1 CA         35.0538  -44.1805  -47.9545 C.3       0 UNK        -0.1968 
      2 C          35.5891  -44.8561  -49.2087 C.2       0 UNK         0.4852 
      3 O          36.7793  -45.1692  -49.2741 O.2       0 UNK        -0.5359 
      4 N          34.7218  -45.0747  -50.2049 N.am      1 UNK        -0.4300 
      5 CA         35.0340  -45.7817  -51.4497 C.3       1 UNK         0.0863 
      6 C6         34.0483  -45.4008  -52.5846 C.3       11 UNK        -0.0953 
      7 S7         32.2844  -45.7373  -52.2201 S.3       11 UNK        -0.2369 
      8 C8         31.5738  -44.0546  -52.1713 C.3       11 UNK         0.0226 
      9 C9         31.0731  -43.5678  -53.5298 C.ar      11 UNK        -0.0699 
     10 C10        31.8953  -43.6190  -54.6598 C.ar      11 UNK        -0.0804 
     11 C11        31.4327  -43.1856  -55.9034 C.ar      11 UNK        -0.0871 
     12 C12        30.1549  -42.6355  -56.0061 C.ar      11 UNK        -0.1008 
     13 C13        29.3194  -42.5684  -54.8880 C.ar      11 UNK        -0.0735 
     14 C14        29.7811  -43.0428  -53.6548 C.ar      11 UNK        -0.0945 
     15 C15        27.9228  -41.9761  -55.0137 C.3       11 UNK         0.0169 
     16 S16        26.7170  -43.1995  -55.6174 S.3       11 UNK        -0.2669 
     17 C17        27.2019  -43.3559  -57.3735 C.3       11 UNK        -0.0850 
     18 CA         26.0407  -43.8203  -58.2887 C.3       10 UNK         0.0855 
     19 C          26.4641  -43.8290  -59.7887 C.2       10 UNK         0.5543 
     20 N          26.3081  -44.9206  -60.5303 N.am      10 UNK        -0.7343 
     21 O          26.9347  -42.8139  -60.2961 O.2       10 UNK        -0.5027 
     22 N          25.4630  -45.0874  -57.8217 N.am      10 UNK        -0.4495 
     23 C          24.2051  -45.4822  -58.0447 C.2       10 UNK         0.4903 
     24 O          23.3610  -44.7970  -58.6251 O.2       10 UNK        -0.4860 
     25 CA         23.8464  -46.8889  -57.5360 C.3       9 UNK         0.0227 
     26 CB         22.5139  -47.4197  -58.1067 C.3       9 UNK        -0.1964 
     27 N          24.9307  -47.8564  -57.7444 N.am      9 UNK        -0.4231 
     28 C          25.4590  -48.2589  -58.9123 C.2       9 UNK         0.5014 
     29 O          25.1073  -47.8053  -60.0026 O.2       9 UNK        -0.5270 
     30 CA         26.5769  -49.3264  -58.8803 C.3       8 UNK         0.0284 
     31 CB         27.7786  -48.8983  -59.7417 C.3       8 UNK        -0.1977 
     32 N          27.0529  -49.6563  -57.5337 N.am      8 UNK        -0.4342 
     33 C          26.3902  -50.3839  -56.6244 C.2       8 UNK         0.5039 
     34 O          25.3287  -50.9627  -56.8559 O.2       8 UNK        -0.5547 
     35 CA         26.9709  -50.4197  -55.1993 C.3       7 UNK         0.0281 
     36 CB         27.8164  -51.6858  -54.9938 C.3       7 UNK        -0.1963 
     37 N          27.7659  -49.2342  -54.8545 N.am      7 UNK        -0.4444 
     38 C          27.3045  -47.9754  -54.7978 C.2       7 UNK         0.5104 
     39 O          26.1348  -47.6669  -55.0275 O.2       7 UNK        -0.5100 
     40 CA         28.3296  -46.8738  -54.4778 C.3       6 UNK         0.0396 
     41 CB         28.5883  -46.7849  -52.9664 C.3       6 UNK        -0.1801 
     42 N          29.5936  -47.0746  -55.1906 N.am      6 UNK        -0.4747 
     43 C          29.7445  -46.8925  -56.5114 C.2       6 UNK         0.5012 
     44 O          28.8392  -46.4984  -57.2473 O.2       6 UNK        -0.5003 
     45 CA         31.1044  -47.2942  -57.1281 C.3       5 UNK         0.0782 
     46 C46        32.1672  -46.1711  -57.0657 C.3       11 UNK        -0.0868 
     47 S47        31.7960  -44.7553  -58.1594 S.3       11 UNK        -0.2515 
     48 C48        32.3058  -43.3317  -57.1401 C.3       11 UNK         0.0199 
     49 N          31.6243  -48.5332  -56.5410 N.am      5 UNK        -0.4607 
     50 C          31.0728  -49.7394  -56.7196 C.2       4 UNK         0.5031 
     51 O          30.0617  -49.9353  -57.3924 O.2       4 UNK        -0.5119 
     52 CA         31.7524  -50.9250  -56.0153 C.3       4 UNK         0.0263 
     53 CB         32.9475  -51.4259  -56.8415 C.3       4 UNK        -0.1967 
     54 N          32.1897  -50.6651  -54.6389 N.am      4 UNK        -0.4237 
     55 C          31.4298  -50.2146  -53.6330 C.2       3 UNK         0.4908 
     56 O          30.2799  -49.8053  -53.7792 O.2       3 UNK        -0.5102 
     57 CA         32.0246  -50.2408  -52.2138 C.3       3 UNK         0.0241 
     58 CB         31.8695  -51.6414  -51.5918 C.3       3 UNK        -0.1971 
     59 N          33.4044  -49.7543  -52.0778 N.am      3 UNK        -0.4139 
     60 C          34.5452  -50.2218  -52.6035 C.2       2 UNK         0.5016 
     61 O          34.5960  -51.1772  -53.3807 O.2       2 UNK        -0.5319 
     62 CA         35.8450  -49.4860  -52.2039 C.3       2 UNK         0.0286 
     63 CB         37.0329  -49.8594  -53.1112 C.3       2 UNK        -0.1963 
     64 N          35.7081  -48.0229  -52.1864 N.am      2 UNK        -0.4790 
     65 C          35.1005  -47.3072  -51.2302 C.2       1 UNK         0.5024 
     66 O          34.5617  -47.8215  -50.2462 O.2       1 UNK        -0.4888 
     67 H67        35.1859  -44.8331  -47.0920 H         1 UNK         0.0892 
     68 H68        33.9936  -43.9424  -48.0401 H         1 UNK         0.0892 
     69 H69        35.5949  -43.2534  -47.7673 H         1 UNK         0.0892 
     70 H70        33.7477  -44.8416  -50.0783 H         1 UNK         0.3107 
     71 H71        36.0309  -45.4667  -51.7667 H         1 UNK         0.0773 
     72 H72        34.3069  -45.9173  -53.5107 H         1 UNK         0.0680 
     73 H73        34.1782  -44.3402  -52.8016 H         1 UNK         0.0680 
     74 H74        30.7513  -44.0680  -51.4548 H         1 UNK         0.0650 
     75 H75        32.3045  -43.3471  -51.7777 H         1 UNK         0.0650 
     76 H76        32.8922  -44.0235  -54.5872 H         1 UNK         0.1397 
     77 H77        29.8069  -42.2802  -56.9655 H         1 UNK         0.1363 
     78 H78        29.1338  -42.9946  -52.7899 H         1 UNK         0.1355 
     79 H79        27.5866  -41.6066  -54.0437 H         1 UNK         0.0707 
     80 H80        27.9372  -41.1098  -55.6769 H         1 UNK         0.0707 
     81 H81        28.0441  -44.0454  -57.4439 H         1 UNK         0.1034 
     82 H82        27.5700  -42.3871  -57.7153 H         1 UNK         0.1034 
     83 H83        25.2614  -43.0593  -58.2158 H         1 UNK         0.0482 
     84 H84        25.8919  -45.7588  -60.1461 H         1 UNK         0.3460 
     85 H85        26.5845  -44.8983  -61.4987 H         1 UNK         0.3460 
     86 H86        26.0967  -45.7131  -57.3444 H         1 UNK         0.2989 
     87 H87        23.7275  -46.7982  -56.4553 H         1 UNK         0.0559 
     88 H88        22.2821  -48.4108  -57.7167 H         1 UNK         0.0848 
     89 H89        22.5352  -47.4837  -59.1951 H         1 UNK         0.0848 
     90 H90        21.6848  -46.7645  -57.8370 H         1 UNK         0.0848 
     91 H91        25.3378  -48.2225  -56.8907 H         1 UNK         0.3144 
     92 H92        26.1564  -50.2333  -59.3194 H         1 UNK         0.0727 
     93 H93        28.5559  -49.6627  -59.7478 H         1 UNK         0.0790 
     94 H94        28.2232  -47.9707  -59.3809 H         1 UNK         0.0790 
     95 H95        27.4825  -48.7346  -60.7786 H         1 UNK         0.0790 
     96 H96        27.9581  -49.2826  -57.2718 H         1 UNK         0.3215 
     97 H97        26.1278  -50.4567  -54.5064 H         1 UNK         0.0863 
     98 H98        28.1942  -51.7523  -53.9734 H         1 UNK         0.0808 
     99 H99        28.6695  -51.7109  -55.6710 H         1 UNK         0.0808 
    100 H100       27.2258  -52.5837  -55.1807 H         1 UNK         0.0808 
    101 H101       28.7381  -49.3995  -54.5942 H         1 UNK         0.3118 
    102 H102       27.9062  -45.9200  -54.7995 H         1 UNK         0.0546 
    103 H103       27.6559  -46.6370  -52.4202 H         1 UNK         0.0828 
    104 H104       29.2369  -45.9429  -52.7283 H         1 UNK         0.0828 
    105 H105       29.0558  -47.6896  -52.5769 H         1 UNK         0.0828 
    106 H106       30.3592  -47.4655  -54.6601 H         1 UNK         0.3005 
    107 H107       30.9116  -47.5043  -58.1833 H         1 UNK         0.1257 
    108 H108       33.1339  -46.5623  -57.3873 H         1 UNK         0.0775 
    109 H109       32.3121  -45.8489  -56.0361 H         1 UNK         0.0775 
    110 H110       33.3564  -43.4401  -56.8659 H         1 UNK         0.0840 
    111 H111       32.2404  -42.4237  -57.7415 H         1 UNK         0.0840 
    112 H112       32.4495  -48.4601  -55.9648 H         1 UNK         0.2987 
    113 H113       31.0202  -51.7324  -55.9658 H         1 UNK         0.0785 
    114 H114       33.7476  -50.6859  -56.8847 H         1 UNK         0.0798 
    115 H115       32.6498  -51.6472  -57.8676 H         1 UNK         0.0798 
    116 H116       33.3629  -52.3423  -56.4216 H         1 UNK         0.0798 
    117 H117       33.1292  -50.9710  -54.3873 H         1 UNK         0.3079 
    118 H118       31.4198  -49.5533  -51.6199 H         1 UNK         0.0794 
    119 H119       32.4615  -52.3900  -52.1195 H         1 UNK         0.0786 
    120 H120       30.8293  -51.9692  -51.6234 H         1 UNK         0.0786 
    121 H121       32.1783  -51.6465  -50.5465 H         1 UNK         0.0786 
    122 H122       33.5132  -48.9664  -51.4461 H         1 UNK         0.3032 
    123 H123       36.0865  -49.8202  -51.1920 H         1 UNK         0.1094 
    124 H124       36.8496  -49.5821  -54.1500 H         1 UNK         0.0794 
    125 H125       37.9505  -49.3675  -52.7879 H         1 UNK         0.0794 
    126 H126       37.2224  -50.9336  -53.0888 H         1 UNK         0.0794 
    127 H127       36.0940  -47.5339  -52.9821 H         1 UNK         0.3016 
@<TRIPOS>BOND
     1    1    2 1    
     2    1   67 1    
     3    1   68 1    
     4    1   69 1    
     5    2    3 2    
     6    2    4 am   BACKBONE|DICT|INTERRES
     7    4    5 1    
     8    4   70 1    
     9    5    6 1    
    10    5   65 1    
    11    5   71 1    
    12    6    7 1    
    13    6   72 1    
    14    6   73 1    
    15    7    8 1    
    16    8    9 1    
    17    8   74 1    
    18    8   75 1    
    19    9   10 ar   
    20    9   14 ar   
    21   10   11 ar   
    22   10   76 1    
    23   11   12 ar   
    24   11   48 1    
    25   12   13 ar   
    26   12   77 1    
    27   13   14 ar   
    28   13   15 1    
    29   14   78 1    
    30   15   16 1    
    31   15   79 1    
    32   15   80 1    
    33   16   17 1    
    34   17   18 1    
    35   17   81 1    
    36   17   82 1    
    37   18   19 1    
    38   18   22 1    
    39   18   83 1    
    40   19   20 am   BACKBONE|DICT|INTERRES
    41   19   21 2    
    42   20   84 1    
    43   20   85 1    
    44   22   23 am   BACKBONE|DICT|INTERRES
    45   22   86 1    
    46   23   24 2    
    47   23   25 1    
    48   25   26 1    
    49   25   27 1    
    50   25   87 1    
    51   26   88 1    
    52   26   89 1    
    53   26   90 1    
    54   27   28 am   BACKBONE|DICT|INTERRES
    55   27   91 1    
    56   28   29 2    
    57   28   30 1    
    58   30   31 1    
    59   30   32 1    
    60   30   92 1    
    61   31   93 1    
    62   31   94 1    
    63   31   95 1    
    64   32   33 am   BACKBONE|DICT|INTERRES
    65   32   96 1    
    66   33   34 2    
    67   33   35 1    
    68   35   36 1    
    69   35   37 1    
    70   35   97 1    
    71   36   98 1    
    72   36   99 1    
    73   36  100 1    
    74   37   38 am   BACKBONE|DICT|INTERRES
    75   37  101 1    
    76   38   39 2    
    77   38   40 1    
    78   40   41 1    
    79   40   42 1    
    80   40  102 1    
    81   41  103 1    
    82   41  104 1    
    83   41  105 1    
    84   42   43 am   BACKBONE|DICT|INTERRES
    85   42  106 1    
    86   43   44 2    
    87   43   45 1    
    88   45   46 1    
    89   45   49 1    
    90   45  107 1    
    91   46   47 1    
    92   46  108 1    
    93   46  109 1    
    94   47   48 1    
    95   48  110 1    
    96   48  111 1    
    97   49   50 am   BACKBONE|DICT|INTERRES
    98   49  112 1    
    99   50   51 2    
   100   50   52 1    
   101   52   53 1    
   102   52   54 1    
   103   52  113 1    
   104   53  114 1    
   105   53  115 1    
   106   53  116 1    
   107   54   55 am   BACKBONE|DICT|INTERRES
   108   54  117 1    
   109   55   56 2    
   110   55   57 1    
   111   57   58 1    
   112   57   59 1    
   113   57  118 1    
   114   58  119 1    
   115   58  120 1    
   116   58  121 1    
   117   59   60 am   BACKBONE|DICT|INTERRES
   118   59  122 1    
   119   60   61 2    
   120   60   62 1    
   121   62   63 1    
   122   62   64 1    
   123   62  123 1    
   124   63  124 1    
   125   63  125 1    
   126   63  126 1    
   127   64   65 am   BACKBONE|DICT|INTERRES
   128   64  127 1    
   129   65   66 2    
@<TRIPOS>SUBSTRUCTURE
     1 UNK         1 GROUP             0       ****    0 ROOT    
