@<TRIPOS>MOLECULE
3R134
127   129    1
SMALL
USER_CHARGES


@<TRIPOS>ATOM
      1 CA         30.4053  -44.8420  -48.5953 C.3       0 UNK        -0.1968 
      2 C          31.8305  -45.2934  -48.8820 C.2       0 UNK         0.4852 
      3 O          32.6061  -45.5015  -47.9470 O.2       0 UNK        -0.5359 
      4 N          32.1801  -45.4395  -50.1662 N.am      1 UNK        -0.4300 
      5 CA         33.4831  -45.9290  -50.6284 C.3       1 UNK         0.0863 
      6 C6         33.7611  -45.5575  -52.1087 C.3       11 UNK        -0.0953 
      7 S7         33.7364  -43.7577  -52.4064 S.3       11 UNK        -0.2369 
      8 C8         32.0634  -43.5065  -53.1024 C.3       11 UNK         0.0226 
      9 C9         31.8939  -43.7882  -54.5986 C.ar      11 UNK        -0.0699 
     10 C10        32.8514  -44.4621  -55.3704 C.ar      11 UNK        -0.0804 
     11 C11        32.6553  -44.6602  -56.7415 C.ar      11 UNK        -0.0871 
     12 C12        31.4862  -44.1904  -57.3462 C.ar      11 UNK        -0.1008 
     13 C13        30.5230  -43.5151  -56.5920 C.ar      11 UNK        -0.0735 
     14 C14        30.7285  -43.3293  -55.2220 C.ar      11 UNK        -0.0945 
     15 C15        29.2951  -42.9244  -57.2680 C.3       11 UNK         0.0169 
     16 S16        27.9584  -44.1411  -57.4730 S.3       11 UNK        -0.2669 
     17 C17        26.7187  -43.1057  -58.3274 C.3       11 UNK        -0.0850 
     18 CA         25.3225  -43.1586  -57.6534 C.3       10 UNK         0.0855 
     19 C          24.4168  -42.0022  -58.1723 C.2       10 UNK         0.5543 
     20 N          23.3467  -42.2688  -58.9128 N.am      10 UNK        -0.7343 
     21 O          24.6924  -40.8389  -57.8920 O.2       10 UNK        -0.5027 
     22 N          24.7292  -44.4977  -57.7804 N.am      10 UNK        -0.4495 
     23 C          23.7020  -44.9734  -57.0707 C.2       10 UNK         0.4903 
     24 O          23.1663  -44.3577  -56.1483 O.2       10 UNK        -0.4860 
     25 CA         23.1595  -46.3648  -57.4529 C.3       9 UNK         0.0227 
     26 CB         22.0971  -46.2471  -58.5631 C.3       9 UNK        -0.1964 
     27 N          24.1736  -47.3750  -57.7965 N.am      9 UNK        -0.4231 
     28 C          25.0561  -47.4064  -58.8056 C.2       9 UNK         0.5014 
     29 O          25.1568  -46.5160  -59.6523 O.2       9 UNK        -0.5270 
     30 CA         25.9899  -48.6343  -58.8645 C.3       8 UNK         0.0284 
     31 CB         27.0833  -48.4936  -59.9405 C.3       8 UNK        -0.1977 
     32 N          26.6230  -48.9303  -57.5728 N.am      8 UNK        -0.4342 
     33 C          26.0252  -49.5526  -56.5445 C.2       8 UNK         0.5039 
     34 O          24.8416  -49.8947  -56.5683 O.2       8 UNK        -0.5547 
     35 CA         26.8480  -49.8336  -55.2750 C.3       7 UNK         0.0281 
     36 CB         27.1762  -51.3320  -55.1675 C.3       7 UNK        -0.1963 
     37 N          28.0856  -49.0550  -55.2106 N.am      7 UNK        -0.4444 
     38 C          28.1408  -47.7663  -54.8412 C.2       7 UNK         0.5104 
     39 O          27.1575  -47.1257  -54.4687 O.2       7 UNK        -0.5100 
     40 CA         29.5115  -47.0652  -54.8911 C.3       6 UNK         0.0396 
     41 CB         30.1070  -46.9694  -53.4803 C.3       6 UNK        -0.1801 
     42 N          30.4859  -47.7041  -55.7802 N.am      6 UNK        -0.4747 
     43 C          30.3455  -47.8198  -57.1096 C.2       6 UNK         0.5012 
     44 O          29.3716  -47.3950  -57.7293 O.2       6 UNK        -0.5003 
     45 CA         31.4192  -48.6232  -57.8727 C.3       5 UNK         0.0782 
     46 C46        32.4856  -47.7012  -58.5168 C.3       11 UNK        -0.0868 
     47 S47        33.7749  -47.1292  -57.3547 S.3       11 UNK        -0.2515 
     48 C48        33.7409  -45.3251  -57.5749 C.3       11 UNK         0.0199 
     49 N          32.0225  -49.7018  -57.0797 N.am      5 UNK        -0.4607 
     50 C          31.3583  -50.7024  -56.4871 C.2       4 UNK         0.5031 
     51 O          30.1413  -50.8564  -56.5830 O.2       4 UNK        -0.5119 
     52 CA         32.1679  -51.6829  -55.6200 C.3       4 UNK         0.0263 
     53 CB         32.3649  -53.0132  -56.3646 C.3       4 UNK        -0.1967 
     54 N          33.4746  -51.1844  -55.1710 N.am      4 UNK        -0.4237 
     55 C          33.6689  -50.1401  -54.3534 C.2       3 UNK         0.4908 
     56 O          32.7681  -49.3966  -53.9566 O.2       3 UNK        -0.5102 
     57 CA         35.1270  -49.8628  -53.9499 C.3       3 UNK         0.0241 
     58 CB         35.7638  -48.8232  -54.8845 C.3       3 UNK        -0.1971 
     59 N          35.2183  -49.3768  -52.5748 N.am      3 UNK        -0.4139 
     60 C          35.0348  -50.1241  -51.4778 C.2       2 UNK         0.5016 
     61 O          34.8426  -51.3408  -51.5003 O.2       2 UNK        -0.5319 
     62 CA         35.0900  -49.3938  -50.1220 C.3       2 UNK         0.0286 
     63 CB         36.4673  -49.5830  -49.4644 C.3       2 UNK        -0.1963 
     64 N          34.7994  -47.9583  -50.2268 N.am      2 UNK        -0.4790 
     65 C          33.5748  -47.4560  -50.4378 C.2       1 UNK         0.5024 
     66 O          32.5583  -48.1502  -50.5206 O.2       1 UNK        -0.4888 
     67 H67        29.8371  -44.6752  -49.5106 H         1 UNK         0.0892 
     68 H68        29.8847  -45.5965  -48.0059 H         1 UNK         0.0892 
     69 H69        30.4134  -43.9117  -48.0275 H         1 UNK         0.0892 
     70 H70        31.4896  -45.2936  -50.8858 H         1 UNK         0.3107 
     71 H71        34.2551  -45.4639  -50.0110 H         1 UNK         0.0773 
     72 H72        34.7508  -45.9109  -52.4039 H         1 UNK         0.0680 
     73 H73        33.0623  -46.0540  -52.7800 H         1 UNK         0.0680 
     74 H74        31.7986  -42.4638  -52.9190 H         1 UNK         0.0650 
     75 H75        31.3413  -44.1019  -52.5440 H         1 UNK         0.0650 
     76 H76        33.7643  -44.8248  -54.9211 H         1 UNK         0.1397 
     77 H77        31.3335  -44.3269  -58.4081 H         1 UNK         0.1363 
     78 H78        29.9851  -42.8005  -54.6409 H         1 UNK         0.1355 
     79 H79        28.9215  -42.0763  -56.6909 H         1 UNK         0.0707 
     80 H80        29.5744  -42.5296  -58.2468 H         1 UNK         0.0707 
     81 H81        27.0849  -42.0778  -58.3620 H         1 UNK         0.1034 
     82 H82        26.6521  -43.4295  -59.3680 H         1 UNK         0.1034 
     83 H83        25.4608  -42.9668  -56.5876 H         1 UNK         0.0482 
     84 H84        22.7688  -41.5109  -59.2400 H         1 UNK         0.3460 
     85 H85        23.1166  -43.2193  -59.1506 H         1 UNK         0.3460 
     86 H86        25.0817  -45.0825  -58.5354 H         1 UNK         0.2989 
     87 H87        22.6591  -46.7528  -56.5644 H         1 UNK         0.0559 
     88 H88        22.5203  -45.8769  -59.4972 H         1 UNK         0.0848 
     89 H89        21.3022  -45.5585  -58.2714 H         1 UNK         0.0848 
     90 H90        21.6300  -47.2101  -58.7675 H         1 UNK         0.0848 
     91 H91        24.2085  -48.1784  -57.1726 H         1 UNK         0.3144 
     92 H92        25.3682  -49.4874  -59.1444 H         1 UNK         0.0727 
     93 H93        27.7027  -47.6120  -59.7716 H         1 UNK         0.0790 
     94 H94        26.6427  -48.3938  -60.9338 H         1 UNK         0.0790 
     95 H95        27.7374  -49.3659  -59.9630 H         1 UNK         0.0790 
     96 H96        27.5748  -48.5998  -57.4568 H         1 UNK         0.3215 
     97 H97        26.2249  -49.5665  -54.4182 H         1 UNK         0.0863 
     98 H98        27.7730  -51.5489  -54.2812 H         1 UNK         0.0808 
     99 H99        27.7238  -51.6913  -56.0395 H         1 UNK         0.0808 
    100 H100       26.2625  -51.9237  -55.0955 H         1 UNK         0.0808 
    101 H101       28.9306  -49.5155  -55.5331 H         1 UNK         0.3118 
    102 H102       29.3437  -46.0517  -55.2611 H         1 UNK         0.0546 
    103 H103       29.4108  -46.4936  -52.7885 H         1 UNK         0.0828 
    104 H104       31.0121  -46.3695  -53.4904 H         1 UNK         0.0828 
    105 H105       30.3576  -47.9512  -53.0757 H         1 UNK         0.0828 
    106 H106       31.3058  -48.1100  -55.3452 H         1 UNK         0.3005 
    107 H107       30.8834  -49.1132  -58.6892 H         1 UNK         0.1257 
    108 H108       32.0144  -46.8488  -59.0099 H         1 UNK         0.0775 
    109 H109       32.9940  -48.2476  -59.3123 H         1 UNK         0.0775 
    110 H110       34.7110  -44.9240  -57.2776 H         1 UNK         0.0840 
    111 H111       33.6309  -45.0813  -58.6328 H         1 UNK         0.0840 
    112 H112       33.0180  -49.6290  -56.9296 H         1 UNK         0.2987 
    113 H113       31.5705  -51.8783  -54.7269 H         1 UNK         0.0785 
    114 H114       31.4076  -53.4271  -56.6861 H         1 UNK         0.0798 
    115 H115       32.8386  -53.7598  -55.7271 H         1 UNK         0.0798 
    116 H116       32.9814  -52.8898  -57.2559 H         1 UNK         0.0798 
    117 H117       34.2790  -51.7205  -55.4652 H         1 UNK         0.3079 
    118 H118       35.6976  -50.7915  -54.0218 H         1 UNK         0.0794 
    119 H119       35.2522  -47.8616  -54.8236 H         1 UNK         0.0786 
    120 H120       35.7233  -49.1514  -55.9242 H         1 UNK         0.0786 
    121 H121       36.8137  -48.6597  -54.6398 H         1 UNK         0.0786 
    122 H122       35.3405  -48.3839  -52.4530 H         1 UNK         0.3032 
    123 H123       34.3371  -49.8539  -49.4770 H         1 UNK         0.1094 
    124 H124       37.2657  -49.1390  -50.0607 H         1 UNK         0.0794 
    125 H125       36.4985  -49.1342  -48.4712 H         1 UNK         0.0794 
    126 H126       36.7004  -50.6423  -49.3458 H         1 UNK         0.0794 
    127 H127       35.5862  -47.3277  -50.1541 H         1 UNK         0.3016 
@<TRIPOS>BOND
     1    1    2 1    
     2    1   67 1    
     3    1   68 1    
     4    1   69 1    
     5    2    3 2    
     6    2    4 am   BACKBONE|DICT|INTERRES
     7    4    5 1    
     8    4   70 1    
     9    5    6 1    
    10    5   65 1    
    11    5   71 1    
    12    6    7 1    
    13    6   72 1    
    14    6   73 1    
    15    7    8 1    
    16    8    9 1    
    17    8   74 1    
    18    8   75 1    
    19    9   10 ar   
    20    9   14 ar   
    21   10   11 ar   
    22   10   76 1    
    23   11   12 ar   
    24   11   48 1    
    25   12   13 ar   
    26   12   77 1    
    27   13   14 ar   
    28   13   15 1    
    29   14   78 1    
    30   15   16 1    
    31   15   79 1    
    32   15   80 1    
    33   16   17 1    
    34   17   18 1    
    35   17   81 1    
    36   17   82 1    
    37   18   19 1    
    38   18   22 1    
    39   18   83 1    
    40   19   20 am   BACKBONE|DICT|INTERRES
    41   19   21 2    
    42   20   84 1    
    43   20   85 1    
    44   22   23 am   BACKBONE|DICT|INTERRES
    45   22   86 1    
    46   23   24 2    
    47   23   25 1    
    48   25   26 1    
    49   25   27 1    
    50   25   87 1    
    51   26   88 1    
    52   26   89 1    
    53   26   90 1    
    54   27   28 am   BACKBONE|DICT|INTERRES
    55   27   91 1    
    56   28   29 2    
    57   28   30 1    
    58   30   31 1    
    59   30   32 1    
    60   30   92 1    
    61   31   93 1    
    62   31   94 1    
    63   31   95 1    
    64   32   33 am   BACKBONE|DICT|INTERRES
    65   32   96 1    
    66   33   34 2    
    67   33   35 1    
    68   35   36 1    
    69   35   37 1    
    70   35   97 1    
    71   36   98 1    
    72   36   99 1    
    73   36  100 1    
    74   37   38 am   BACKBONE|DICT|INTERRES
    75   37  101 1    
    76   38   39 2    
    77   38   40 1    
    78   40   41 1    
    79   40   42 1    
    80   40  102 1    
    81   41  103 1    
    82   41  104 1    
    83   41  105 1    
    84   42   43 am   BACKBONE|DICT|INTERRES
    85   42  106 1    
    86   43   44 2    
    87   43   45 1    
    88   45   46 1    
    89   45   49 1    
    90   45  107 1    
    91   46   47 1    
    92   46  108 1    
    93   46  109 1    
    94   47   48 1    
    95   48  110 1    
    96   48  111 1    
    97   49   50 am   BACKBONE|DICT|INTERRES
    98   49  112 1    
    99   50   51 2    
   100   50   52 1    
   101   52   53 1    
   102   52   54 1    
   103   52  113 1    
   104   53  114 1    
   105   53  115 1    
   106   53  116 1    
   107   54   55 am   BACKBONE|DICT|INTERRES
   108   54  117 1    
   109   55   56 2    
   110   55   57 1    
   111   57   58 1    
   112   57   59 1    
   113   57  118 1    
   114   58  119 1    
   115   58  120 1    
   116   58  121 1    
   117   59   60 am   BACKBONE|DICT|INTERRES
   118   59  122 1    
   119   60   61 2    
   120   60   62 1    
   121   62   63 1    
   122   62   64 1    
   123   62  123 1    
   124   63  124 1    
   125   63  125 1    
   126   63  126 1    
   127   64   65 am   BACKBONE|DICT|INTERRES
   128   64  127 1    
   129   65   66 2    
@<TRIPOS>SUBSTRUCTURE
     1 UNK         1 GROUP             0       ****    0 ROOT    
