@<TRIPOS>MOLECULE
3R134
127   129    1
SMALL
USER_CHARGES


@<TRIPOS>ATOM
      1 CA         34.4747  -45.0885  -47.0531 C.3       0 UNK        -0.1968 
      2 C          35.0022  -45.0289  -48.4794 C.2       0 UNK         0.4852 
      3 O          36.1663  -44.6810  -48.6861 O.2       0 UNK        -0.5359 
      4 N          34.1533  -45.3562  -49.4620 N.am      1 UNK        -0.4300 
      5 CA         34.4963  -45.4034  -50.8875 C.3       1 UNK         0.0863 
      6 C6         33.2332  -45.4025  -51.7844 C.3       11 UNK        -0.0953 
      7 S7         32.2533  -43.8777  -51.5691 S.3       11 UNK        -0.2369 
      8 C8         32.9255  -42.8099  -52.8828 C.3       11 UNK         0.0226 
      9 C9         32.2263  -43.0440  -54.2134 C.ar      11 UNK        -0.0699 
     10 C10        32.7464  -43.9534  -55.1395 C.ar      11 UNK        -0.0804 
     11 C11        32.0872  -44.1847  -56.3498 C.ar      11 UNK        -0.0871 
     12 C12        30.9233  -43.4714  -56.6499 C.ar      11 UNK        -0.1008 
     13 C13        30.3922  -42.5632  -55.7314 C.ar      11 UNK        -0.0735 
     14 C14        31.0496  -42.3507  -54.5160 C.ar      11 UNK        -0.0945 
     15 C15        29.1085  -41.8134  -56.0530 C.3       11 UNK         0.0169 
     16 S16        27.6550  -42.5349  -55.2221 S.3       11 UNK        -0.2669 
     17 C17        27.4379  -44.1371  -56.0733 C.3       11 UNK        -0.0850 
     18 CA         26.5040  -44.0357  -57.3112 C.3       10 UNK         0.0855 
     19 C          27.2927  -43.7681  -58.6184 C.2       10 UNK         0.5543 
     20 N          27.0879  -42.6210  -59.2508 N.am      10 UNK        -0.7343 
     21 O          28.1152  -44.5779  -59.0395 O.2       10 UNK        -0.5027 
     22 N          25.6694  -45.2347  -57.4553 N.am      10 UNK        -0.4495 
     23 C          24.4467  -45.2336  -58.0044 C.2       10 UNK         0.4903 
     24 O          23.8889  -44.2167  -58.4214 O.2       10 UNK        -0.4860 
     25 CA         23.7088  -46.5853  -58.0662 C.3       9 UNK         0.0227 
     26 CB         22.4538  -46.5545  -58.9655 C.3       9 UNK        -0.1964 
     27 N          24.5825  -47.7082  -58.4174 N.am      9 UNK        -0.4231 
     28 C          25.2551  -47.9004  -59.5647 C.2       9 UNK         0.5014 
     29 O          25.1925  -47.1380  -60.5302 O.2       9 UNK        -0.5270 
     30 CA         26.1546  -49.1503  -59.6603 C.3       8 UNK         0.0284 
     31 CB         27.5721  -48.7782  -60.1336 C.3       8 UNK        -0.1977 
     32 N          26.2554  -49.8528  -58.3788 N.am      8 UNK        -0.4342 
     33 C          25.5180  -50.9082  -58.0064 C.2       8 UNK         0.5039 
     34 O          24.7190  -51.4801  -58.7482 O.2       8 UNK        -0.5547 
     35 CA         25.6721  -51.3940  -56.5513 C.3       7 UNK         0.0281 
     36 CB         26.6039  -52.6147  -56.4889 C.3       7 UNK        -0.1963 
     37 N          26.1676  -50.3541  -55.6413 N.am      7 UNK        -0.4444 
     38 C          25.4652  -49.2678  -55.2784 C.2       7 UNK         0.5104 
     39 O          24.3060  -49.0609  -55.6351 O.2       7 UNK        -0.5100 
     40 CA         26.1951  -48.1894  -54.4522 C.3       6 UNK         0.0396 
     41 CB         25.9914  -48.4335  -52.9497 C.3       6 UNK        -0.1801 
     42 N          27.6296  -48.1117  -54.7434 N.am      6 UNK        -0.4747 
     43 C          28.1565  -47.8696  -55.9529 C.2       6 UNK         0.5012 
     44 O          27.4731  -47.5318  -56.9191 O.2       6 UNK        -0.5003 
     45 CA         29.6724  -48.0971  -56.1413 C.3       5 UNK         0.0782 
     46 C46        30.3874  -46.7514  -56.3823 C.3       11 UNK        -0.0868 
     47 S47        32.1728  -46.9269  -56.7210 S.3       11 UNK        -0.2515 
     48 C48        32.5926  -45.2521  -57.3087 C.3       11 UNK         0.0199 
     49 N          30.2949  -48.8675  -55.0554 N.am      5 UNK        -0.4607 
     50 C          30.0177  -50.1364  -54.7323 C.2       4 UNK         0.5031 
     51 O          29.1317  -50.7926  -55.2825 O.2       4 UNK        -0.5119 
     52 CA         30.8609  -50.7586  -53.6019 C.3       4 UNK         0.0263 
     53 CB         30.4472  -52.2096  -53.2912 C.3       4 UNK        -0.1967 
     54 N          32.2953  -50.7258  -53.9030 N.am      4 UNK        -0.4237 
     55 C          33.0850  -49.6493  -53.8015 C.2       3 UNK         0.4908 
     56 O          32.6888  -48.5386  -53.4344 O.2       3 UNK        -0.5102 
     57 CA         34.5503  -49.8424  -54.2047 C.3       3 UNK         0.0241 
     58 CB         34.7082  -49.9091  -55.7347 C.3       3 UNK        -0.1971 
     59 N          35.3241  -48.7233  -53.6807 N.am      3 UNK        -0.4139 
     60 C          36.5981  -48.7709  -53.2802 C.2       2 UNK         0.5016 
     61 O          37.3034  -49.7776  -53.3655 O.2       2 UNK        -0.5319 
     62 CA         37.2024  -47.4830  -52.6877 C.3       2 UNK         0.0286 
     63 CB         38.1605  -46.8295  -53.6979 C.3       2 UNK        -0.1963 
     64 N          36.2177  -46.4825  -52.2550 N.am      2 UNK        -0.4790 
     65 C          35.3986  -46.6151  -51.2019 C.2       1 UNK         0.5024 
     66 O          35.3332  -47.6359  -50.5122 O.2       1 UNK        -0.4888 
     67 H67        33.4293  -45.3947  -47.0172 H         1 UNK         0.0892 
     68 H68        35.0564  -45.8000  -46.4678 H         1 UNK         0.0892 
     69 H69        34.5572  -44.1098  -46.5812 H         1 UNK         0.0892 
     70 H70        33.2137  -45.6458  -49.2324 H         1 UNK         0.3107 
     71 H71        35.0724  -44.5034  -51.1147 H         1 UNK         0.0773 
     72 H72        33.4959  -45.5129  -52.8365 H         1 UNK         0.0680 
     73 H73        32.5948  -46.2562  -51.5482 H         1 UNK         0.0680 
     74 H74        34.0009  -42.9664  -52.9784 H         1 UNK         0.0650 
     75 H75        32.7980  -41.7687  -52.5827 H         1 UNK         0.0650 
     76 H76        33.6474  -44.5051  -54.9111 H         1 UNK         0.1397 
     77 H77        30.4097  -43.6501  -57.5853 H         1 UNK         0.1363 
     78 H78        30.6374  -41.6528  -53.7997 H         1 UNK         0.1355 
     79 H79        28.9394  -41.7794  -57.1297 H         1 UNK         0.0707 
     80 H80        29.2109  -40.7752  -55.7339 H         1 UNK         0.0707 
     81 H81        28.4024  -44.5801  -56.3175 H         1 UNK         0.1034 
     82 H82        27.0008  -44.8089  -55.3327 H         1 UNK         0.1034 
     83 H83        25.8283  -43.1945  -57.1405 H         1 UNK         0.0482 
     84 H84        26.4098  -41.9558  -58.9129 H         1 UNK         0.3460 
     85 H85        27.6004  -42.4291  -60.0970 H         1 UNK         0.3460 
     86 H86        26.1175  -46.1183  -57.2335 H         1 UNK         0.2989 
     87 H87        23.3697  -46.7822  -57.0482 H         1 UNK         0.0559 
     88 H88        22.6986  -46.2987  -59.9968 H         1 UNK         0.0848 
     89 H89        21.7367  -45.8133  -58.6104 H         1 UNK         0.0848 
     90 H90        21.9446  -47.5181  -58.9701 H         1 UNK         0.0848 
     91 H91        24.6947  -48.3986  -57.6854 H         1 UNK         0.3144 
     92 H92        25.7110  -49.8096  -60.4092 H         1 UNK         0.0727 
     93 H93        28.2176  -49.6551  -60.1851 H         1 UNK         0.0790 
     94 H94        28.0436  -48.0504  -59.4723 H         1 UNK         0.0790 
     95 H95        27.5475  -48.3380  -61.1313 H         1 UNK         0.0790 
     96 H96        26.8551  -49.4136  -57.6912 H         1 UNK         0.3215 
     97 H97        24.6836  -51.7018  -56.2031 H         1 UNK         0.0863 
     98 H98        26.7006  -52.9909  -55.4703 H         1 UNK         0.0808 
     99 H99        27.6038  -52.3789  -56.8555 H         1 UNK         0.0808 
    100 H100       26.2179  -53.4310  -57.1010 H         1 UNK         0.0808 
    101 H101       27.1332  -50.4441  -55.3372 H         1 UNK         0.3118 
    102 H102       25.7531  -47.2237  -54.7064 H         1 UNK         0.0546 
    103 H103       24.9296  -48.4721  -52.7018 H         1 UNK         0.0828 
    104 H104       26.4315  -47.6337  -52.3538 H         1 UNK         0.0828 
    105 H105       26.4352  -49.3767  -52.6285 H         1 UNK         0.0828 
    106 H106       28.2608  -48.3733  -54.0000 H         1 UNK         0.3005 
    107 H107       29.7743  -48.6946  -57.0500 H         1 UNK         0.1257 
    108 H108       30.2650  -46.1026  -55.5126 H         1 UNK         0.0775 
    109 H109       29.9367  -46.2323  -57.2311 H         1 UNK         0.0775 
    110 H110       33.6749  -45.1703  -57.4179 H         1 UNK         0.0840 
    111 H111       32.1714  -45.1068  -58.3048 H         1 UNK         0.0840 
    112 H112       31.0621  -48.4150  -54.5664 H         1 UNK         0.2987 
    113 H113       30.6795  -50.1641  -52.7037 H         1 UNK         0.0785 
    114 H114       29.3923  -52.2659  -53.0188 H         1 UNK         0.0798 
    115 H115       31.0168  -52.6148  -52.4547 H         1 UNK         0.0798 
    116 H116       30.5969  -52.8657  -54.1498 H         1 UNK         0.0798 
    117 H117       32.6957  -51.5861  -54.2495 H         1 UNK         0.3079 
    118 H118       34.9039  -50.7736  -53.7566 H         1 UNK         0.0794 
    119 H119       34.3715  -48.9891  -56.2135 H         1 UNK         0.0786 
    120 H120       34.1291  -50.7299  -56.1592 H         1 UNK         0.0786 
    121 H121       35.7488  -50.0691  -56.0175 H         1 UNK         0.0786 
    122 H122       34.7841  -47.8835  -53.5165 H         1 UNK         0.3032 
    123 H123       37.7823  -47.7821  -51.8113 H         1 UNK         0.1094 
    124 H124       37.6357  -46.4938  -54.5933 H         1 UNK         0.0794 
    125 H125       38.6717  -45.9700  -53.2637 H         1 UNK         0.0794 
    126 H126       38.9313  -47.5326  -54.0174 H         1 UNK         0.0794 
    127 H127       36.2069  -45.6151  -52.7730 H         1 UNK         0.3016 
@<TRIPOS>BOND
     1    1    2 1    
     2    1   67 1    
     3    1   68 1    
     4    1   69 1    
     5    2    3 2    
     6    2    4 am   BACKBONE|DICT|INTERRES
     7    4    5 1    
     8    4   70 1    
     9    5    6 1    
    10    5   65 1    
    11    5   71 1    
    12    6    7 1    
    13    6   72 1    
    14    6   73 1    
    15    7    8 1    
    16    8    9 1    
    17    8   74 1    
    18    8   75 1    
    19    9   10 ar   
    20    9   14 ar   
    21   10   11 ar   
    22   10   76 1    
    23   11   12 ar   
    24   11   48 1    
    25   12   13 ar   
    26   12   77 1    
    27   13   14 ar   
    28   13   15 1    
    29   14   78 1    
    30   15   16 1    
    31   15   79 1    
    32   15   80 1    
    33   16   17 1    
    34   17   18 1    
    35   17   81 1    
    36   17   82 1    
    37   18   19 1    
    38   18   22 1    
    39   18   83 1    
    40   19   20 am   BACKBONE|DICT|INTERRES
    41   19   21 2    
    42   20   84 1    
    43   20   85 1    
    44   22   23 am   BACKBONE|DICT|INTERRES
    45   22   86 1    
    46   23   24 2    
    47   23   25 1    
    48   25   26 1    
    49   25   27 1    
    50   25   87 1    
    51   26   88 1    
    52   26   89 1    
    53   26   90 1    
    54   27   28 am   BACKBONE|DICT|INTERRES
    55   27   91 1    
    56   28   29 2    
    57   28   30 1    
    58   30   31 1    
    59   30   32 1    
    60   30   92 1    
    61   31   93 1    
    62   31   94 1    
    63   31   95 1    
    64   32   33 am   BACKBONE|DICT|INTERRES
    65   32   96 1    
    66   33   34 2    
    67   33   35 1    
    68   35   36 1    
    69   35   37 1    
    70   35   97 1    
    71   36   98 1    
    72   36   99 1    
    73   36  100 1    
    74   37   38 am   BACKBONE|DICT|INTERRES
    75   37  101 1    
    76   38   39 2    
    77   38   40 1    
    78   40   41 1    
    79   40   42 1    
    80   40  102 1    
    81   41  103 1    
    82   41  104 1    
    83   41  105 1    
    84   42   43 am   BACKBONE|DICT|INTERRES
    85   42  106 1    
    86   43   44 2    
    87   43   45 1    
    88   45   46 1    
    89   45   49 1    
    90   45  107 1    
    91   46   47 1    
    92   46  108 1    
    93   46  109 1    
    94   47   48 1    
    95   48  110 1    
    96   48  111 1    
    97   49   50 am   BACKBONE|DICT|INTERRES
    98   49  112 1    
    99   50   51 2    
   100   50   52 1    
   101   52   53 1    
   102   52   54 1    
   103   52  113 1    
   104   53  114 1    
   105   53  115 1    
   106   53  116 1    
   107   54   55 am   BACKBONE|DICT|INTERRES
   108   54  117 1    
   109   55   56 2    
   110   55   57 1    
   111   57   58 1    
   112   57   59 1    
   113   57  118 1    
   114   58  119 1    
   115   58  120 1    
   116   58  121 1    
   117   59   60 am   BACKBONE|DICT|INTERRES
   118   59  122 1    
   119   60   61 2    
   120   60   62 1    
   121   62   63 1    
   122   62   64 1    
   123   62  123 1    
   124   63  124 1    
   125   63  125 1    
   126   63  126 1    
   127   64   65 am   BACKBONE|DICT|INTERRES
   128   64  127 1    
   129   65   66 2    
@<TRIPOS>SUBSTRUCTURE
     1 UNK         1 GROUP             0       ****    0 ROOT    
