@<TRIPOS>MOLECULE
3R134
127   129    1
SMALL
USER_CHARGES


@<TRIPOS>ATOM
      1 CA         38.9467  -46.1108  -53.8828 C.3       0 UNK        -0.1968 
      2 C          37.5599  -46.6019  -54.2712 C.2       0 UNK         0.4852 
      3 O          37.4198  -47.7359  -54.7297 O.2       0 UNK        -0.5359 
      4 N          36.5358  -45.7591  -54.0853 N.am      1 UNK        -0.4300 
      5 CA         35.1288  -46.0506  -54.3910 C.3       1 UNK         0.0863 
      6 C6         34.3725  -44.7845  -54.8661 C.3       11 UNK        -0.0953 
      7 S7         34.4006  -43.4065  -53.6682 S.3       11 UNK        -0.2369 
      8 C8         33.2695  -42.2241  -54.4703 C.3       11 UNK         0.0226 
      9 C9         31.8495  -42.7647  -54.5709 C.ar      11 UNK        -0.0699 
     10 C10        31.1185  -43.0304  -53.4100 C.ar      11 UNK        -0.0804 
     11 C11        29.8249  -43.5533  -53.4867 C.ar      11 UNK        -0.0871 
     12 C12        29.2499  -43.7777  -54.7416 C.ar      11 UNK        -0.1008 
     13 C13        29.9755  -43.5304  -55.9095 C.ar      11 UNK        -0.0735 
     14 C14        31.2734  -43.0188  -55.8195 C.ar      11 UNK        -0.0945 
     15 C15        29.3838  -43.8827  -57.2641 C.3       11 UNK         0.0169 
     16 S16        28.7311  -42.4419  -58.1580 S.3       11 UNK        -0.2669 
     17 C17        27.2154  -42.0274  -57.2206 C.3       11 UNK        -0.0850 
     18 CA         25.9115  -42.7077  -57.7239 C.3       10 UNK         0.0855 
     19 C          25.5977  -42.4064  -59.2214 C.2       10 UNK         0.5543 
     20 N          25.5169  -43.3990  -60.1014 N.am      10 UNK        -0.7343 
     21 O          25.4082  -41.2482  -59.5849 O.2       10 UNK        -0.5027 
     22 N          25.8564  -44.1312  -57.3551 N.am      10 UNK        -0.4495 
     23 C          24.7254  -44.8406  -57.2431 C.2       10 UNK         0.4903 
     24 O          23.6018  -44.3434  -57.3368 O.2       10 UNK        -0.4860 
     25 CA         24.8655  -46.3538  -56.9740 C.3       9 UNK         0.0227 
     26 CB         23.6568  -47.1584  -57.4965 C.3       9 UNK        -0.1964 
     27 N          26.1156  -46.9590  -57.4545 N.am      9 UNK        -0.4231 
     28 C          26.5856  -46.9772  -58.7120 C.2       9 UNK         0.5014 
     29 O          26.0753  -46.3534  -59.6441 O.2       9 UNK        -0.5270 
     30 CA         27.8365  -47.8322  -58.9823 C.3       8 UNK         0.0284 
     31 CB         29.1226  -47.0137  -58.8022 C.3       8 UNK        -0.1977 
     32 N          27.9158  -49.0340  -58.1497 N.am      8 UNK        -0.4342 
     33 C          27.1504  -50.1227  -58.3067 C.2       8 UNK         0.5039 
     34 O          26.2744  -50.2306  -59.1656 O.2       8 UNK        -0.5547 
     35 CA         27.4134  -51.2917  -57.3464 C.3       7 UNK         0.0281 
     36 CB         28.6833  -52.0604  -57.7498 C.3       7 UNK        -0.1963 
     37 N          27.5364  -50.8286  -55.9645 N.am      7 UNK        -0.4444 
     38 C          26.4981  -50.6196  -55.1446 C.2       7 UNK         0.5104 
     39 O          25.3269  -50.8459  -55.4498 O.2       7 UNK        -0.5100 
     40 CA         26.8112  -50.0688  -53.7416 C.3       6 UNK         0.0396 
     41 CB         26.9201  -51.2175  -52.7268 C.3       6 UNK        -0.1801 
     42 N          28.0293  -49.2563  -53.6842 N.am      6 UNK        -0.4747 
     43 C          28.1567  -48.0464  -54.2512 C.2       6 UNK         0.5012 
     44 O          27.2777  -47.5166  -54.9303 O.2       6 UNK        -0.5003 
     45 CA         29.5143  -47.3277  -54.0792 C.3       5 UNK         0.0782 
     46 C46        29.6424  -46.6589  -52.6802 C.3       11 UNK        -0.0868 
     47 S47        28.2704  -45.5273  -52.2371 S.3       11 UNK        -0.2515 
     48 C48        29.0706  -43.8875  -52.2053 C.3       11 UNK         0.0199 
     49 N          30.6562  -48.2146  -54.3306 N.am      5 UNK        -0.4607 
     50 C          30.8120  -49.0756  -55.3478 C.2       4 UNK         0.5031 
     51 O          30.0451  -49.1537  -56.3073 O.2       4 UNK        -0.5119 
     52 CA         31.9773  -50.0756  -55.2457 C.3       4 UNK         0.0263 
     53 CB         33.1889  -49.5733  -56.0446 C.3       4 UNK        -0.1967 
     54 N          32.3848  -50.3727  -53.8669 N.am      4 UNK        -0.4237 
     55 C          31.6066  -50.8863  -52.9023 C.2       3 UNK         0.4908 
     56 O          30.4331  -51.2155  -53.0792 O.2       3 UNK        -0.5102 
     57 CA         32.2064  -50.9974  -51.4861 C.3       3 UNK         0.0241 
     58 CB         33.0086  -52.3028  -51.3167 C.3       3 UNK        -0.1971 
     59 N          32.9751  -49.8122  -51.0662 N.am      3 UNK        -0.4139 
     60 C          34.1354  -49.3576  -51.5604 C.2       2 UNK         0.5016 
     61 O          34.8018  -49.9505  -52.4127 O.2       2 UNK        -0.5319 
     62 CA         34.6034  -47.9774  -51.0646 C.3       2 UNK         0.0286 
     63 CB         35.7053  -48.1276  -50.0040 C.3       2 UNK        -0.1963 
     64 N          35.1052  -47.1540  -52.1699 N.am      2 UNK        -0.4790 
     65 C          34.3922  -46.7931  -53.2493 C.2       1 UNK         0.5024 
     66 O          33.1907  -47.0418  -53.3690 O.2       1 UNK        -0.4888 
     67 H67        38.9248  -45.0949  -53.4883 H         1 UNK         0.0892 
     68 H68        39.6050  -46.1224  -54.7510 H         1 UNK         0.0892 
     69 H69        39.3759  -46.7611  -53.1211 H         1 UNK         0.0892 
     70 H70        36.7053  -44.8398  -53.7001 H         1 UNK         0.3107 
     71 H71        35.1105  -46.7454  -55.2331 H         1 UNK         0.0773 
     72 H72        34.8143  -44.4262  -55.7971 H         1 UNK         0.0680 
     73 H73        33.3379  -45.0327  -55.1098 H         1 UNK         0.0680 
     74 H74        33.2585  -41.2989  -53.8926 H         1 UNK         0.0650 
     75 H75        33.6618  -41.9679  -55.4556 H         1 UNK         0.0650 
     76 H76        31.5727  -42.8494  -52.4452 H         1 UNK         0.1397 
     77 H77        28.2496  -44.1841  -54.8060 H         1 UNK         0.1363 
     78 H78        31.8382  -42.8338  -56.7230 H         1 UNK         0.1355 
     79 H79        28.5972  -44.6275  -57.1524 H         1 UNK         0.0707 
     80 H80        30.1574  -44.3458  -57.8783 H         1 UNK         0.0707 
     81 H81        27.0947  -40.9439  -57.2748 H         1 UNK         0.1034 
     82 H82        27.3646  -42.2370  -56.1614 H         1 UNK         0.1034 
     83 H83        25.1022  -42.2242  -57.1730 H         1 UNK         0.0482 
     84 H84        25.3074  -43.1873  -61.0636 H         1 UNK         0.3460 
     85 H85        25.6741  -44.3610  -59.8206 H         1 UNK         0.3460 
     86 H86        26.7363  -44.6178  -57.2996 H         1 UNK         0.2989 
     87 H87        24.8826  -46.4595  -55.8885 H         1 UNK         0.0559 
     88 H88        23.5432  -47.0575  -58.5764 H         1 UNK         0.0848 
     89 H89        22.7273  -46.8200  -57.0371 H         1 UNK         0.0848 
     90 H90        23.7599  -48.2196  -57.2684 H         1 UNK         0.0848 
     91 H91        26.6507  -47.4327  -56.7303 H         1 UNK         0.3144 
     92 H92        27.7866  -48.1484  -60.0265 H         1 UNK         0.0727 
     93 H93        29.9904  -47.5629  -59.1680 H         1 UNK         0.0790 
     94 H94        29.3040  -46.7776  -57.7537 H         1 UNK         0.0790 
     95 H95        29.0749  -46.0770  -59.3596 H         1 UNK         0.0790 
     96 H96        28.6461  -49.0518  -57.4380 H         1 UNK         0.3215 
     97 H97        26.5694  -51.9816  -57.4191 H         1 UNK         0.0863 
     98 H98        28.8466  -52.9216  -57.1017 H         1 UNK         0.0808 
     99 H99        29.5748  -51.4341  -57.7041 H         1 UNK         0.0808 
    100 H100       28.6017  -52.4350  -58.7710 H         1 UNK         0.0808 
    101 H101       28.4599  -50.5617  -55.6491 H         1 UNK         0.3118 
    102 H102       25.9731  -49.4344  -53.4452 H         1 UNK         0.0546 
    103 H103       26.0083  -51.8163  -52.7159 H         1 UNK         0.0828 
    104 H104       27.0717  -50.8417  -51.7149 H         1 UNK         0.0828 
    105 H105       27.7470  -51.8883  -52.9635 H         1 UNK         0.0828 
    106 H106       28.8278  -49.6653  -53.2128 H         1 UNK         0.3005 
    107 H107       29.5589  -46.5477  -54.8405 H         1 UNK         0.1257 
    108 H108       30.5869  -46.1158  -52.6183 H         1 UNK         0.0775 
    109 H109       29.6961  -47.4251  -51.9047 H         1 UNK         0.0775 
    110 H110       28.3080  -43.1261  -52.0370 H         1 UNK         0.0840 
    111 H111       29.7387  -43.8506  -51.3433 H         1 UNK         0.0840 
    112 H112       31.4150  -48.1509  -53.6624 H         1 UNK         0.2987 
    113 H113       31.6369  -51.0123  -55.6916 H         1 UNK         0.0785 
    114 H114       33.5823  -48.6431  -55.6360 H         1 UNK         0.0798 
    115 H115       32.9192  -49.3846  -57.0847 H         1 UNK         0.0798 
    116 H116       33.9956  -50.3066  -56.0470 H         1 UNK         0.0798 
    117 H117       33.3411  -50.1428  -53.6065 H         1 UNK         0.3079 
    118 H118       31.3601  -51.0505  -50.7991 H         1 UNK         0.0794 
    119 H119       33.8552  -52.3593  -52.0012 H         1 UNK         0.0786 
    120 H120       32.3786  -53.1713  -51.5135 H         1 UNK         0.0786 
    121 H121       33.3912  -52.4037  -50.3010 H         1 UNK         0.0786 
    122 H122       32.5092  -49.2382  -50.3765 H         1 UNK         0.3032 
    123 H123       33.7555  -47.4514  -50.6201 H         1 UNK         0.1094 
    124 H124       36.5859  -48.6307  -50.4065 H         1 UNK         0.0794 
    125 H125       36.0193  -47.1584  -49.6159 H         1 UNK         0.0794 
    126 H126       35.3536  -48.7164  -49.1556 H         1 UNK         0.0794 
    127 H127       36.0915  -46.9419  -52.1670 H         1 UNK         0.3016 
@<TRIPOS>BOND
     1    1    2 1    
     2    1   67 1    
     3    1   68 1    
     4    1   69 1    
     5    2    3 2    
     6    2    4 am   BACKBONE|DICT|INTERRES
     7    4    5 1    
     8    4   70 1    
     9    5    6 1    
    10    5   65 1    
    11    5   71 1    
    12    6    7 1    
    13    6   72 1    
    14    6   73 1    
    15    7    8 1    
    16    8    9 1    
    17    8   74 1    
    18    8   75 1    
    19    9   10 ar   
    20    9   14 ar   
    21   10   11 ar   
    22   10   76 1    
    23   11   12 ar   
    24   11   48 1    
    25   12   13 ar   
    26   12   77 1    
    27   13   14 ar   
    28   13   15 1    
    29   14   78 1    
    30   15   16 1    
    31   15   79 1    
    32   15   80 1    
    33   16   17 1    
    34   17   18 1    
    35   17   81 1    
    36   17   82 1    
    37   18   19 1    
    38   18   22 1    
    39   18   83 1    
    40   19   20 am   BACKBONE|DICT|INTERRES
    41   19   21 2    
    42   20   84 1    
    43   20   85 1    
    44   22   23 am   BACKBONE|DICT|INTERRES
    45   22   86 1    
    46   23   24 2    
    47   23   25 1    
    48   25   26 1    
    49   25   27 1    
    50   25   87 1    
    51   26   88 1    
    52   26   89 1    
    53   26   90 1    
    54   27   28 am   BACKBONE|DICT|INTERRES
    55   27   91 1    
    56   28   29 2    
    57   28   30 1    
    58   30   31 1    
    59   30   32 1    
    60   30   92 1    
    61   31   93 1    
    62   31   94 1    
    63   31   95 1    
    64   32   33 am   BACKBONE|DICT|INTERRES
    65   32   96 1    
    66   33   34 2    
    67   33   35 1    
    68   35   36 1    
    69   35   37 1    
    70   35   97 1    
    71   36   98 1    
    72   36   99 1    
    73   36  100 1    
    74   37   38 am   BACKBONE|DICT|INTERRES
    75   37  101 1    
    76   38   39 2    
    77   38   40 1    
    78   40   41 1    
    79   40   42 1    
    80   40  102 1    
    81   41  103 1    
    82   41  104 1    
    83   41  105 1    
    84   42   43 am   BACKBONE|DICT|INTERRES
    85   42  106 1    
    86   43   44 2    
    87   43   45 1    
    88   45   46 1    
    89   45   49 1    
    90   45  107 1    
    91   46   47 1    
    92   46  108 1    
    93   46  109 1    
    94   47   48 1    
    95   48  110 1    
    96   48  111 1    
    97   49   50 am   BACKBONE|DICT|INTERRES
    98   49  112 1    
    99   50   51 2    
   100   50   52 1    
   101   52   53 1    
   102   52   54 1    
   103   52  113 1    
   104   53  114 1    
   105   53  115 1    
   106   53  116 1    
   107   54   55 am   BACKBONE|DICT|INTERRES
   108   54  117 1    
   109   55   56 2    
   110   55   57 1    
   111   57   58 1    
   112   57   59 1    
   113   57  118 1    
   114   58  119 1    
   115   58  120 1    
   116   58  121 1    
   117   59   60 am   BACKBONE|DICT|INTERRES
   118   59  122 1    
   119   60   61 2    
   120   60   62 1    
   121   62   63 1    
   122   62   64 1    
   123   62  123 1    
   124   63  124 1    
   125   63  125 1    
   126   63  126 1    
   127   64   65 am   BACKBONE|DICT|INTERRES
   128   64  127 1    
   129   65   66 2    
@<TRIPOS>SUBSTRUCTURE
     1 UNK         1 GROUP             0       ****    0 ROOT    
