@<TRIPOS>MOLECULE
3R134
127   129    1
SMALL
USER_CHARGES


@<TRIPOS>ATOM
      1 CA         37.7281  -43.7916  -54.8502 C.3       0 UNK        -0.1968 
      2 C          36.4479  -44.2797  -55.5121 C.2       0 UNK         0.4852 
      3 O          36.3025  -44.1529  -56.7287 O.2       0 UNK        -0.5359 
      4 N          35.5206  -44.8362  -54.7206 N.am      1 UNK        -0.4300 
      5 CA         34.2190  -45.3470  -55.1779 C.3       1 UNK         0.0863 
      6 C6         33.2072  -45.5088  -54.0129 C.3       11 UNK        -0.0953 
      7 S7         33.0854  -44.0248  -52.9588 S.3       11 UNK        -0.2369 
      8 C8         31.7919  -43.0633  -53.8059 C.3       11 UNK         0.0226 
      9 C9         30.3848  -43.5792  -53.5319 C.ar      11 UNK        -0.0699 
     10 C10        29.9197  -43.7061  -52.2187 C.ar      11 UNK        -0.0804 
     11 C11        28.6134  -44.1331  -51.9638 C.ar      11 UNK        -0.0871 
     12 C12        27.7567  -44.3997  -53.0353 C.ar      11 UNK        -0.1008 
     13 C13        28.2124  -44.2902  -54.3509 C.ar      11 UNK        -0.0735 
     14 C14        29.5303  -43.8899  -54.5939 C.ar      11 UNK        -0.0945 
     15 C15        27.2877  -44.6450  -55.5039 C.3       11 UNK         0.0169 
     16 S16        26.2114  -43.2609  -55.9965 S.3       11 UNK        -0.2669 
     17 C17        27.3531  -42.1846  -56.9335 C.3       11 UNK        -0.0850 
     18 CA         27.1541  -42.2703  -58.4793 C.3       10 UNK         0.0855 
     19 C          27.9640  -41.1955  -59.2716 C.2       10 UNK         0.5543 
     20 N          28.0448  -39.9662  -58.7788 N.am      10 UNK        -0.7343 
     21 O          28.4803  -41.4431  -60.3604 O.2       10 UNK        -0.5027 
     22 N          27.3289  -43.6349  -59.0126 N.am      10 UNK        -0.4495 
     23 C          28.4576  -44.3550  -58.9871 C.2       10 UNK         0.4903 
     24 O          29.5096  -43.9865  -58.4588 O.2       10 UNK        -0.4860 
     25 CA         28.4062  -45.7252  -59.6786 C.3       9 UNK         0.0227 
     26 CB         29.0875  -45.6592  -61.0553 C.3       9 UNK        -0.1964 
     27 N          29.0810  -46.7250  -58.8507 N.am      9 UNK        -0.4231 
     28 C          28.4982  -47.3914  -57.8468 C.2       9 UNK         0.5014 
     29 O          27.2984  -47.3085  -57.5714 O.2       9 UNK        -0.5270 
     30 CA         29.4322  -48.2543  -56.9796 C.3       8 UNK         0.0284 
     31 CB         30.0789  -47.3960  -55.8784 C.3       8 UNK        -0.1977 
     32 N          28.7444  -49.3834  -56.3499 N.am      8 UNK        -0.4342 
     33 C          28.1775  -50.4106  -56.9964 C.2       8 UNK         0.5039 
     34 O          28.2131  -50.5513  -58.2202 O.2       8 UNK        -0.5547 
     35 CA         27.4629  -51.4755  -56.1483 C.3       7 UNK         0.0281 
     36 CB         28.4377  -52.6010  -55.7651 C.3       7 UNK        -0.1963 
     37 N          26.8785  -50.9260  -54.9215 N.am      7 UNK        -0.4444 
     38 C          25.5658  -50.8278  -54.6721 C.2       7 UNK         0.5104 
     39 O          24.6909  -51.1377  -55.4820 O.2       7 UNK        -0.5100 
     40 CA         25.1370  -50.3406  -53.2729 C.3       6 UNK         0.0396 
     41 CB         24.6796  -51.5316  -52.4148 C.3       6 UNK        -0.1801 
     42 N          26.1852  -49.6152  -52.5511 N.am      6 UNK        -0.4747 
     43 C          26.5277  -48.3412  -52.7879 C.2       6 UNK         0.5012 
     44 O          25.9547  -47.6256  -53.6087 O.2       6 UNK        -0.5003 
     45 CA         27.7131  -47.7642  -51.9817 C.3       5 UNK         0.0782 
     46 C46        27.1785  -46.9663  -50.7657 C.3       11 UNK        -0.0868 
     47 S47        28.4752  -45.9979  -49.9227 S.3       11 UNK        -0.2515 
     48 C48        28.1360  -44.3126  -50.5306 C.3       11 UNK         0.0199 
     49 N          28.7298  -48.7526  -51.5839 N.am      5 UNK        -0.4607 
     50 C          29.3823  -49.5778  -52.4119 C.2       4 UNK         0.5031 
     51 O          29.1042  -49.7040  -53.6058 O.2       4 UNK        -0.5119 
     52 CA         30.4874  -50.4519  -51.7949 C.3       4 UNK         0.0263 
     53 CB         29.8691  -51.6854  -51.1163 C.3       4 UNK        -0.1967 
     54 N          31.4457  -50.9005  -52.8101 N.am      4 UNK        -0.4237 
     55 C          32.2887  -50.0926  -53.4660 C.2       3 UNK         0.4908 
     56 O          32.4541  -48.9002  -53.1901 O.2       3 UNK        -0.5102 
     57 CA         33.0619  -50.7177  -54.6362 C.3       3 UNK         0.0241 
     58 CB         32.1053  -51.1813  -55.7551 C.3       3 UNK        -0.1971 
     59 N          33.9887  -49.7131  -55.1453 N.am      3 UNK        -0.4139 
     60 C          34.9979  -49.8997  -56.0005 C.2       2 UNK         0.5016 
     61 O          35.2902  -50.9988  -56.4749 O.2       2 UNK        -0.5319 
     62 CA         35.8570  -48.6732  -56.3725 C.3       2 UNK         0.0286 
     63 CB         35.9925  -48.5147  -57.9018 C.3       2 UNK        -0.1963 
     64 N          35.4506  -47.4043  -55.7440 N.am      2 UNK        -0.4790 
     65 C          34.3467  -46.6695  -55.9671 C.2       1 UNK         0.5024 
     66 O          33.4478  -46.9975  -56.7409 O.2       1 UNK        -0.4888 
     67 H67        37.7217  -43.9611  -53.7735 H         1 UNK         0.0892 
     68 H68        38.5893  -44.3107  -55.2701 H         1 UNK         0.0892 
     69 H69        37.8559  -42.7234  -55.0237 H         1 UNK         0.0892 
     70 H70        35.6794  -44.8840  -53.7237 H         1 UNK         0.3107 
     71 H71        33.8055  -44.6115  -55.8715 H         1 UNK         0.0773 
     72 H72        32.2145  -45.7582  -54.3925 H         1 UNK         0.0680 
     73 H73        33.4992  -46.3389  -53.3670 H         1 UNK         0.0680 
     74 H74        32.0038  -43.0434  -54.8760 H         1 UNK         0.0650 
     75 H75        31.8511  -42.0295  -53.4635 H         1 UNK         0.0650 
     76 H76        30.5809  -43.4793  -51.3933 H         1 UNK         0.1397 
     77 H77        26.7403  -44.7193  -52.8501 H         1 UNK         0.1363 
     78 H78        29.8879  -43.8116  -55.6117 H         1 UNK         0.1355 
     79 H79        26.6617  -45.4934  -55.2236 H         1 UNK         0.0707 
     80 H80        27.8729  -44.9780  -56.3566 H         1 UNK         0.0707 
     81 H81        27.1658  -41.1712  -56.5776 H         1 UNK         0.1034 
     82 H82        28.3869  -42.3978  -56.6663 H         1 UNK         0.1034 
     83 H83        26.1111  -42.0263  -58.6843 H         1 UNK         0.0482 
     84 H84        27.6001  -39.7147  -57.9105 H         1 UNK         0.3460 
     85 H85        28.5508  -39.2670  -59.2999 H         1 UNK         0.3460 
     86 H86        26.5242  -44.0167  -59.4880 H         1 UNK         0.2989 
     87 H87        27.3646  -46.0197  -59.8261 H         1 UNK         0.0559 
     88 H88        28.5934  -44.9303  -61.6992 H         1 UNK         0.0848 
     89 H89        29.0471  -46.6218  -61.5655 H         1 UNK         0.0848 
     90 H90        30.1347  -45.3639  -60.9760 H         1 UNK         0.0848 
     91 H91        30.0820  -46.7978  -58.9657 H         1 UNK         0.3144 
     92 H92        30.2208  -48.6590  -57.6174 H         1 UNK         0.0727 
     93 H93        29.3369  -47.0223  -55.1717 H         1 UNK         0.0790 
     94 H94        30.5932  -46.5314  -56.3005 H         1 UNK         0.0790 
     95 H95        30.8185  -47.9643  -55.3146 H         1 UNK         0.0790 
     96 H96        28.7280  -49.3849  -55.3325 H         1 UNK         0.3215 
     97 H97        26.6841  -51.9100  -56.7788 H         1 UNK         0.0863 
     98 H98        27.9094  -53.4400  -55.3122 H         1 UNK         0.0808 
     99 H99        29.1851  -52.2562  -55.0510 H         1 UNK         0.0808 
    100 H100       28.9652  -52.9838  -56.6400 H         1 UNK         0.0808 
    101 H101       27.5339  -50.5890  -54.2225 H         1 UNK         0.3118 
    102 H102       24.2819  -49.6744  -53.4069 H         1 UNK         0.0546 
    103 H103       25.4908  -52.2394  -52.2395 H         1 UNK         0.0828 
    104 H104       23.8718  -52.0780  -52.9039 H         1 UNK         0.0828 
    105 H105       24.3036  -51.2027  -51.4459 H         1 UNK         0.0828 
    106 H106       26.7053  -50.1301  -51.8551 H         1 UNK         0.3005 
    107 H107       28.2193  -47.0705  -52.6555 H         1 UNK         0.1257 
    108 H108       26.7369  -47.6460  -50.0344 H         1 UNK         0.0775 
    109 H109       26.3730  -46.2915  -51.0614 H         1 UNK         0.0775 
    110 H110       27.0714  -44.0888  -50.4470 H         1 UNK         0.0840 
    111 H111       28.6438  -43.5980  -49.8810 H         1 UNK         0.0840 
    112 H112       29.0090  -48.7174  -50.6139 H         1 UNK         0.2987 
    113 H113       31.0248  -49.8621  -51.0492 H         1 UNK         0.0785 
    114 H114       29.1782  -51.3948  -50.3237 H         1 UNK         0.0798 
    115 H115       30.6351  -52.3119  -50.6588 H         1 UNK         0.0798 
    116 H116       29.3119  -52.3000  -51.8250 H         1 UNK         0.0798 
    117 H117       31.3605  -51.8591  -53.1132 H         1 UNK         0.3079 
    118 H118       33.6360  -51.5667  -54.2600 H         1 UNK         0.0794 
    119 H119       31.4586  -51.9869  -55.4109 H         1 UNK         0.0786 
    120 H120       32.6462  -51.5650  -56.6197 H         1 UNK         0.0786 
    121 H121       31.4668  -50.3673  -56.0986 H         1 UNK         0.0786 
    122 H122       33.8266  -48.7880  -54.7662 H         1 UNK         0.3032 
    123 H123       36.8524  -48.8900  -55.9811 H         1 UNK         0.1094 
    124 H124       36.6253  -47.6651  -58.1586 H         1 UNK         0.0794 
    125 H125       36.4455  -49.4008  -58.3482 H         1 UNK         0.0794 
    126 H126       35.0249  -48.3714  -58.3836 H         1 UNK         0.0794 
    127 H127       36.1067  -47.0359  -55.0688 H         1 UNK         0.3016 
@<TRIPOS>BOND
     1    1    2 1    
     2    1   67 1    
     3    1   68 1    
     4    1   69 1    
     5    2    3 2    
     6    2    4 am   BACKBONE|DICT|INTERRES
     7    4    5 1    
     8    4   70 1    
     9    5    6 1    
    10    5   65 1    
    11    5   71 1    
    12    6    7 1    
    13    6   72 1    
    14    6   73 1    
    15    7    8 1    
    16    8    9 1    
    17    8   74 1    
    18    8   75 1    
    19    9   10 ar   
    20    9   14 ar   
    21   10   11 ar   
    22   10   76 1    
    23   11   12 ar   
    24   11   48 1    
    25   12   13 ar   
    26   12   77 1    
    27   13   14 ar   
    28   13   15 1    
    29   14   78 1    
    30   15   16 1    
    31   15   79 1    
    32   15   80 1    
    33   16   17 1    
    34   17   18 1    
    35   17   81 1    
    36   17   82 1    
    37   18   19 1    
    38   18   22 1    
    39   18   83 1    
    40   19   20 am   BACKBONE|DICT|INTERRES
    41   19   21 2    
    42   20   84 1    
    43   20   85 1    
    44   22   23 am   BACKBONE|DICT|INTERRES
    45   22   86 1    
    46   23   24 2    
    47   23   25 1    
    48   25   26 1    
    49   25   27 1    
    50   25   87 1    
    51   26   88 1    
    52   26   89 1    
    53   26   90 1    
    54   27   28 am   BACKBONE|DICT|INTERRES
    55   27   91 1    
    56   28   29 2    
    57   28   30 1    
    58   30   31 1    
    59   30   32 1    
    60   30   92 1    
    61   31   93 1    
    62   31   94 1    
    63   31   95 1    
    64   32   33 am   BACKBONE|DICT|INTERRES
    65   32   96 1    
    66   33   34 2    
    67   33   35 1    
    68   35   36 1    
    69   35   37 1    
    70   35   97 1    
    71   36   98 1    
    72   36   99 1    
    73   36  100 1    
    74   37   38 am   BACKBONE|DICT|INTERRES
    75   37  101 1    
    76   38   39 2    
    77   38   40 1    
    78   40   41 1    
    79   40   42 1    
    80   40  102 1    
    81   41  103 1    
    82   41  104 1    
    83   41  105 1    
    84   42   43 am   BACKBONE|DICT|INTERRES
    85   42  106 1    
    86   43   44 2    
    87   43   45 1    
    88   45   46 1    
    89   45   49 1    
    90   45  107 1    
    91   46   47 1    
    92   46  108 1    
    93   46  109 1    
    94   47   48 1    
    95   48  110 1    
    96   48  111 1    
    97   49   50 am   BACKBONE|DICT|INTERRES
    98   49  112 1    
    99   50   51 2    
   100   50   52 1    
   101   52   53 1    
   102   52   54 1    
   103   52  113 1    
   104   53  114 1    
   105   53  115 1    
   106   53  116 1    
   107   54   55 am   BACKBONE|DICT|INTERRES
   108   54  117 1    
   109   55   56 2    
   110   55   57 1    
   111   57   58 1    
   112   57   59 1    
   113   57  118 1    
   114   58  119 1    
   115   58  120 1    
   116   58  121 1    
   117   59   60 am   BACKBONE|DICT|INTERRES
   118   59  122 1    
   119   60   61 2    
   120   60   62 1    
   121   62   63 1    
   122   62   64 1    
   123   62  123 1    
   124   63  124 1    
   125   63  125 1    
   126   63  126 1    
   127   64   65 am   BACKBONE|DICT|INTERRES
   128   64  127 1    
   129   65   66 2    
@<TRIPOS>SUBSTRUCTURE
     1 UNK         1 GROUP             0       ****    0 ROOT    
