@<TRIPOS>MOLECULE
3R134
127   129    1
SMALL
USER_CHARGES


@<TRIPOS>ATOM
      1 CA         34.3328  -40.9408  -53.1048 C.3       0 UNK        -0.1968 
      2 C          33.8644  -42.3658  -53.3608 C.2       0 UNK         0.4852 
      3 O          33.8588  -42.8085  -54.5100 O.2       0 UNK        -0.5359 
      4 N          33.4665  -43.0812  -52.3005 N.am      1 UNK        -0.4300 
      5 CA         33.0262  -44.4757  -52.3492 C.3       1 UNK         0.0863 
      6 C6         32.2415  -44.8530  -51.0653 C.3       11 UNK        -0.0953 
      7 S7         31.3990  -46.4704  -51.1650 S.3       11 UNK        -0.2369 
      8 C8         29.7187  -45.9833  -51.6723 C.3       11 UNK         0.0226 
      9 C9         29.7123  -45.4558  -53.0971 C.ar      11 UNK        -0.0699 
     10 C10        29.8379  -46.3457  -54.1640 C.ar      11 UNK        -0.0804 
     11 C11        29.8994  -45.8789  -55.4783 C.ar      11 UNK        -0.0871 
     12 C12        29.8187  -44.5045  -55.7251 C.ar      11 UNK        -0.1008 
     13 C13        29.6803  -43.6029  -54.6637 C.ar      11 UNK        -0.0735 
     14 C14        29.6221  -44.0849  -53.3522 C.ar      11 UNK        -0.0945 
     15 C15        29.6199  -42.1046  -54.9195 C.3       11 UNK         0.0169 
     16 S16        27.9309  -41.4529  -54.7210 S.3       11 UNK        -0.2669 
     17 C17        27.1456  -41.9365  -56.2970 C.3       11 UNK        -0.0850 
     18 CA         26.3798  -43.2894  -56.2213 C.3       10 UNK         0.0855 
     19 C          24.9972  -43.2218  -55.5036 C.2       10 UNK         0.5543 
     20 N          24.2209  -44.2986  -55.5222 N.am      10 UNK        -0.7343 
     21 O          24.6128  -42.2028  -54.9344 O.2       10 UNK        -0.5027 
     22 N          26.3154  -43.9474  -57.5344 N.am      10 UNK        -0.4495 
     23 C          25.6429  -43.5168  -58.6098 C.2       10 UNK         0.4903 
     24 O          25.0265  -42.4516  -58.6484 O.2       10 UNK        -0.4860 
     25 CA         25.6323  -44.4188  -59.8622 C.3       9 UNK         0.0227 
     26 CB         26.7574  -44.0223  -60.8390 C.3       9 UNK        -0.1964 
     27 N          25.6341  -45.8643  -59.5815 N.am      9 UNK        -0.4231 
     28 C          26.6083  -46.6029  -59.0342 C.2       9 UNK         0.5014 
     29 O          27.7205  -46.1673  -58.7339 O.2       9 UNK        -0.5270 
     30 CA         26.2614  -48.0615  -58.7018 C.3       8 UNK         0.0284 
     31 CB         27.0544  -49.0255  -59.5985 C.3       8 UNK        -0.1977 
     32 N          26.5363  -48.3607  -57.2927 N.am      8 UNK        -0.4342 
     33 C          25.9356  -47.7548  -56.2530 C.2       8 UNK         0.5039 
     34 O          25.0608  -46.8967  -56.3874 O.2       8 UNK        -0.5547 
     35 CA         26.3575  -48.1716  -54.8327 C.3       7 UNK         0.0281 
     36 CB         25.1913  -48.1181  -53.8268 C.3       7 UNK        -0.1963 
     37 N          26.9584  -49.5035  -54.8317 N.am      7 UNK        -0.4444 
     38 C          27.9455  -49.9054  -54.0260 C.2       7 UNK         0.5104 
     39 O          28.3903  -49.2385  -53.0925 O.2       7 UNK        -0.5100 
     40 CA         28.5756  -51.2728  -54.3366 C.3       6 UNK         0.0396 
     41 CB         27.5682  -52.3213  -54.8595 C.3       6 UNK        -0.1801 
     42 N          29.7231  -51.1312  -55.2392 N.am      6 UNK        -0.4747 
     43 C          29.7280  -50.6564  -56.4976 C.2       6 UNK         0.5012 
     44 O          28.7045  -50.3114  -57.0916 O.2       6 UNK        -0.5003 
     45 CA         31.0892  -50.5174  -57.2216 C.3       5 UNK         0.0782 
     46 C46        31.3146  -49.0876  -57.7796 C.3       11 UNK        -0.0868 
     47 S47        31.5895  -47.8250  -56.4869 S.3       11 UNK        -0.2515 
     48 C48        30.0476  -46.8697  -56.6207 C.3       11 UNK         0.0199 
     49 N          32.2228  -50.9415  -56.3963 N.am      5 UNK        -0.4607 
     50 C          32.6349  -52.2017  -56.2161 C.2       4 UNK         0.5031 
     51 O          32.1475  -53.1708  -56.7972 O.2       4 UNK        -0.5119 
     52 CA         33.7659  -52.4181  -55.1928 C.3       4 UNK         0.0263 
     53 CB         35.1233  -52.5148  -55.9068 C.3       4 UNK        -0.1967 
     54 N          33.8396  -51.3742  -54.1630 N.am      4 UNK        -0.4237 
     55 C          32.8908  -51.0953  -53.2599 C.2       3 UNK         0.4908 
     56 O          31.8290  -51.7128  -53.1852 O.2       3 UNK        -0.5102 
     57 CA         33.1359  -49.9127  -52.3047 C.3       3 UNK         0.0241 
     58 CB         33.9606  -50.3513  -51.0797 C.3       3 UNK        -0.1971 
     59 N          33.7046  -48.7100  -52.9342 N.am      3 UNK        -0.4139 
     60 C          34.9113  -48.5287  -53.4948 C.2       2 UNK         0.5016 
     61 O          35.7572  -49.4180  -53.5994 O.2       2 UNK        -0.5319 
     62 CA         35.2248  -47.1343  -54.0674 C.3       2 UNK         0.0286 
     63 CB         35.3664  -47.1950  -55.5974 C.3       2 UNK        -0.1963 
     64 N          34.2098  -46.1349  -53.7167 N.am      2 UNK        -0.4790 
     65 C          34.2313  -45.4046  -52.5934 C.2       1 UNK         0.5024 
     66 O          35.1405  -45.4503  -51.7618 O.2       1 UNK        -0.4888 
     67 H67        33.7193  -40.2382  -53.6663 H         1 UNK         0.0892 
     68 H68        34.2732  -40.6740  -52.0508 H         1 UNK         0.0892 
     69 H69        35.3662  -40.8225  -53.4260 H         1 UNK         0.0892 
     70 H70        33.5267  -42.6740  -51.3782 H         1 UNK         0.3107 
     71 H71        32.3495  -44.5676  -53.2001 H         1 UNK         0.0773 
     72 H72        31.4925  -44.0897  -50.8495 H         1 UNK         0.0680 
     73 H73        32.9043  -44.8666  -50.1979 H         1 UNK         0.0680 
     74 H74        29.0630  -46.8529  -51.6054 H         1 UNK         0.0650 
     75 H75        29.3214  -45.2431  -50.9762 H         1 UNK         0.0650 
     76 H76        29.9180  -47.4057  -53.9686 H         1 UNK         0.1397 
     77 H77        29.8643  -44.1363  -56.7410 H         1 UNK         0.1363 
     78 H78        29.5283  -43.3883  -52.5304 H         1 UNK         0.1355 
     79 H79        30.0038  -41.8589  -55.9108 H         1 UNK         0.0707 
     80 H80        30.2756  -41.5974  -54.2100 H         1 UNK         0.0707 
     81 H81        27.9230  -41.9879  -57.0605 H         1 UNK         0.1034 
     82 H82        26.4783  -41.1355  -56.6201 H         1 UNK         0.1034 
     83 H83        26.9745  -43.9665  -55.6081 H         1 UNK         0.0482 
     84 H84        23.3227  -44.2652  -55.0683 H         1 UNK         0.3460 
     85 H85        24.5358  -45.1657  -55.9539 H         1 UNK         0.3460 
     86 H86        26.8159  -44.8256  -57.6229 H         1 UNK         0.2989 
     87 H87        24.6844  -44.2277  -60.3680 H         1 UNK         0.0559 
     88 H88        26.6613  -42.9771  -61.1357 H         1 UNK         0.0848 
     89 H89        26.7239  -44.6216  -61.7487 H         1 UNK         0.0848 
     90 H90        27.7465  -44.1394  -60.3955 H         1 UNK         0.0848 
     91 H91        24.7469  -46.3220  -59.7421 H         1 UNK         0.3144 
     92 H92        25.1960  -48.2278  -58.8743 H         1 UNK         0.0727 
     93 H93        26.8061  -50.0649  -59.3831 H         1 UNK         0.0790 
     94 H94        28.1304  -48.9049  -59.4658 H         1 UNK         0.0790 
     95 H95        26.8342  -48.8496  -60.6522 H         1 UNK         0.0790 
     96 H96        27.2964  -49.0148  -57.1230 H         1 UNK         0.3215 
     97 H97        27.1095  -47.4427  -54.5224 H         1 UNK         0.0863 
     98 H98        25.5219  -48.3792  -52.8214 H         1 UNK         0.0808 
     99 H99        24.3900  -48.8028  -54.1063 H         1 UNK         0.0808 
    100 H100       24.7636  -47.1160  -53.7725 H         1 UNK         0.0808 
    101 H101       26.6710  -50.1249  -55.5755 H         1 UNK         0.3118 
    102 H102       28.9739  -51.6504  -53.3935 H         1 UNK         0.0546 
    103 H103       28.0327  -53.3052  -54.9233 H         1 UNK         0.0828 
    104 H104       27.1780  -52.0820  -55.8486 H         1 UNK         0.0828 
    105 H105       26.7164  -52.4135  -54.1842 H         1 UNK         0.0828 
    106 H106       30.6155  -51.3555  -54.8119 H         1 UNK         0.3005 
    107 H107       31.0275  -51.1905  -58.0799 H         1 UNK         0.1257 
    108 H108       32.1949  -49.0895  -58.4242 H         1 UNK         0.0775 
    109 H109       30.4885  -48.7878  -58.4273 H         1 UNK         0.0775 
    110 H110       30.0393  -46.3569  -57.5832 H         1 UNK         0.0840 
    111 H111       29.1927  -47.5455  -56.6154 H         1 UNK         0.0840 
    112 H112       32.6837  -50.2055  -55.8814 H         1 UNK         0.2987 
    113 H113       33.5716  -53.3672  -54.6890 H         1 UNK         0.0785 
    114 H114       35.9235  -52.7550  -55.2065 H         1 UNK         0.0798 
    115 H115       35.3838  -51.5803  -56.4057 H         1 UNK         0.0798 
    116 H116       35.1119  -53.2988  -56.6654 H         1 UNK         0.0798 
    117 H117       34.6869  -50.8096  -54.1265 H         1 UNK         0.3079 
    118 H118       32.1534  -49.6076  -51.9398 H         1 UNK         0.0794 
    119 H119       33.4781  -51.1826  -50.5639 H         1 UNK         0.0786 
    120 H120       34.0610  -49.5385  -50.3604 H         1 UNK         0.0786 
    121 H121       34.9627  -50.6802  -51.3562 H         1 UNK         0.0786 
    122 H122       33.0926  -47.9058  -52.9295 H         1 UNK         0.3032 
    123 H123       36.1900  -46.8310  -53.6546 H         1 UNK         0.1094 
    124 H124       34.4517  -47.5384  -56.0787 H         1 UNK         0.0794 
    125 H125       35.6172  -46.2181  -56.0114 H         1 UNK         0.0794 
    126 H126       36.1623  -47.8818  -55.8889 H         1 UNK         0.0794 
    127 H127       33.4469  -46.0113  -54.3693 H         1 UNK         0.3016 
@<TRIPOS>BOND
     1    1    2 1    
     2    1   67 1    
     3    1   68 1    
     4    1   69 1    
     5    2    3 2    
     6    2    4 am   BACKBONE|DICT|INTERRES
     7    4    5 1    
     8    4   70 1    
     9    5    6 1    
    10    5   65 1    
    11    5   71 1    
    12    6    7 1    
    13    6   72 1    
    14    6   73 1    
    15    7    8 1    
    16    8    9 1    
    17    8   74 1    
    18    8   75 1    
    19    9   10 ar   
    20    9   14 ar   
    21   10   11 ar   
    22   10   76 1    
    23   11   12 ar   
    24   11   48 1    
    25   12   13 ar   
    26   12   77 1    
    27   13   14 ar   
    28   13   15 1    
    29   14   78 1    
    30   15   16 1    
    31   15   79 1    
    32   15   80 1    
    33   16   17 1    
    34   17   18 1    
    35   17   81 1    
    36   17   82 1    
    37   18   19 1    
    38   18   22 1    
    39   18   83 1    
    40   19   20 am   BACKBONE|DICT|INTERRES
    41   19   21 2    
    42   20   84 1    
    43   20   85 1    
    44   22   23 am   BACKBONE|DICT|INTERRES
    45   22   86 1    
    46   23   24 2    
    47   23   25 1    
    48   25   26 1    
    49   25   27 1    
    50   25   87 1    
    51   26   88 1    
    52   26   89 1    
    53   26   90 1    
    54   27   28 am   BACKBONE|DICT|INTERRES
    55   27   91 1    
    56   28   29 2    
    57   28   30 1    
    58   30   31 1    
    59   30   32 1    
    60   30   92 1    
    61   31   93 1    
    62   31   94 1    
    63   31   95 1    
    64   32   33 am   BACKBONE|DICT|INTERRES
    65   32   96 1    
    66   33   34 2    
    67   33   35 1    
    68   35   36 1    
    69   35   37 1    
    70   35   97 1    
    71   36   98 1    
    72   36   99 1    
    73   36  100 1    
    74   37   38 am   BACKBONE|DICT|INTERRES
    75   37  101 1    
    76   38   39 2    
    77   38   40 1    
    78   40   41 1    
    79   40   42 1    
    80   40  102 1    
    81   41  103 1    
    82   41  104 1    
    83   41  105 1    
    84   42   43 am   BACKBONE|DICT|INTERRES
    85   42  106 1    
    86   43   44 2    
    87   43   45 1    
    88   45   46 1    
    89   45   49 1    
    90   45  107 1    
    91   46   47 1    
    92   46  108 1    
    93   46  109 1    
    94   47   48 1    
    95   48  110 1    
    96   48  111 1    
    97   49   50 am   BACKBONE|DICT|INTERRES
    98   49  112 1    
    99   50   51 2    
   100   50   52 1    
   101   52   53 1    
   102   52   54 1    
   103   52  113 1    
   104   53  114 1    
   105   53  115 1    
   106   53  116 1    
   107   54   55 am   BACKBONE|DICT|INTERRES
   108   54  117 1    
   109   55   56 2    
   110   55   57 1    
   111   57   58 1    
   112   57   59 1    
   113   57  118 1    
   114   58  119 1    
   115   58  120 1    
   116   58  121 1    
   117   59   60 am   BACKBONE|DICT|INTERRES
   118   59  122 1    
   119   60   61 2    
   120   60   62 1    
   121   62   63 1    
   122   62   64 1    
   123   62  123 1    
   124   63  124 1    
   125   63  125 1    
   126   63  126 1    
   127   64   65 am   BACKBONE|DICT|INTERRES
   128   64  127 1    
   129   65   66 2    
@<TRIPOS>SUBSTRUCTURE
     1 UNK         1 GROUP             0       ****    0 ROOT    
