@<TRIPOS>MOLECULE
3R134
127   129    1
SMALL
USER_CHARGES


@<TRIPOS>ATOM
      1 CA         33.8959  -42.3634  -47.2986 C.3       0 UNK        -0.1968 
      2 C          34.4417  -43.4210  -48.2470 C.2       0 UNK         0.4852 
      3 O          35.3777  -44.1383  -47.8893 O.2       0 UNK        -0.5359 
      4 N          33.8710  -43.5158  -49.4544 N.am      1 UNK        -0.4300 
      5 CA         34.2059  -44.5199  -50.4678 C.3       1 UNK         0.0863 
      6 C6         33.7148  -44.0975  -51.8782 C.3       11 UNK        -0.0953 
      7 S7         31.9284  -43.7161  -51.9702 S.3       11 UNK        -0.2369 
      8 C8         31.2895  -45.1536  -52.8838 C.3       11 UNK         0.0226 
      9 C9         31.3946  -44.9534  -54.3883 C.ar      11 UNK        -0.0699 
     10 C10        32.4745  -45.4770  -55.1063 C.ar      11 UNK        -0.0804 
     11 C11        32.5694  -45.2804  -56.4883 C.ar      11 UNK        -0.0871 
     12 C12        31.5722  -44.5605  -57.1520 C.ar      11 UNK        -0.1008 
     13 C13        30.4877  -44.0352  -56.4446 C.ar      11 UNK        -0.0735 
     14 C14        30.4015  -44.2384  -55.0646 C.ar      11 UNK        -0.0945 
     15 C15        29.4185  -43.2362  -57.1708 C.3       11 UNK         0.0169 
     16 S16        28.2445  -44.3401  -58.0045 S.3       11 UNK        -0.2669 
     17 C17        26.9970  -43.1444  -58.5965 C.3       11 UNK        -0.0850 
     18 CA         25.7760  -43.0262  -57.6460 C.3       10 UNK         0.0855 
     19 C          24.7266  -42.0451  -58.2369 C.2       10 UNK         0.5543 
     20 N          24.7422  -40.7894  -57.8116 N.am      10 UNK        -0.7343 
     21 O          23.9383  -42.4002  -59.1109 O.2       10 UNK        -0.5027 
     22 N          25.2349  -44.3546  -57.3333 N.am      10 UNK        -0.4495 
     23 C          24.1943  -44.6522  -56.5475 C.2       10 UNK         0.4903 
     24 O          23.5155  -43.8112  -55.9566 O.2       10 UNK        -0.4860 
     25 CA         23.8952  -46.1507  -56.3331 C.3       9 UNK         0.0227 
     26 CB         22.3842  -46.4618  -56.3825 C.3       9 UNK        -0.1964 
     27 N          24.6662  -47.0543  -57.2028 N.am      9 UNK        -0.4231 
     28 C          24.5453  -47.2292  -58.5311 C.2       9 UNK         0.5014 
     29 O          23.7208  -46.6359  -59.2266 O.2       9 UNK        -0.5270 
     30 CA         25.5219  -48.2047  -59.2222 C.3       8 UNK         0.0284 
     31 CB         26.5249  -47.4333  -60.0964 C.3       8 UNK        -0.1977 
     32 N          26.2657  -49.0541  -58.2898 N.am      8 UNK        -0.4342 
     33 C          25.7335  -50.0588  -57.5786 C.2       8 UNK         0.5039 
     34 O          24.5774  -50.4568  -57.7253 O.2       8 UNK        -0.5547 
     35 CA         26.6167  -50.7117  -56.4977 C.3       7 UNK         0.0281 
     36 CB         27.0744  -52.1068  -56.9514 C.3       7 UNK        -0.1963 
     37 N          27.7867  -49.9142  -56.1071 N.am      7 UNK        -0.4444 
     38 C          27.7386  -48.7022  -55.5280 C.2       7 UNK         0.5104 
     39 O          26.6854  -48.1190  -55.2672 O.2       7 UNK        -0.5100 
     40 CA         29.0763  -48.0027  -55.2174 C.3       6 UNK         0.0396 
     41 CB         29.4313  -48.2036  -53.7371 C.3       6 UNK        -0.1801 
     42 N          30.1956  -48.4589  -56.0476 N.am      6 UNK        -0.4747 
     43 C          30.2584  -48.3452  -57.3849 C.2       6 UNK         0.5012 
     44 O          29.3792  -47.8080  -58.0595 O.2       6 UNK        -0.5003 
     45 CA         31.4427  -49.0207  -58.1127 C.3       5 UNK         0.0782 
     46 C46        32.5092  -47.9964  -58.5886 C.3       11 UNK        -0.0868 
     47 S47        33.7971  -47.6221  -57.3454 S.3       11 UNK        -0.2515 
     48 C48        33.7715  -45.8069  -57.2568 C.3       11 UNK         0.0199 
     49 N          32.0409  -50.1341  -57.3655 N.am      5 UNK        -0.4607 
     50 C          31.4096  -51.2383  -56.9497 C.2       4 UNK         0.5031 
     51 O          30.2371  -51.4930  -57.2208 O.2       4 UNK        -0.5119 
     52 CA         32.1982  -52.1967  -56.0386 C.3       4 UNK         0.0263 
     53 CB         32.7696  -53.3625  -56.8614 C.3       4 UNK        -0.1967 
     54 N          33.2822  -51.5713  -55.2658 N.am      4 UNK        -0.4237 
     55 C          33.1351  -50.5718  -54.3841 C.2       3 UNK         0.4908 
     56 O          32.0690  -49.9869  -54.1749 O.2       3 UNK        -0.5102 
     57 CA         34.3928  -50.1440  -53.6196 C.3       3 UNK         0.0241 
     58 CB         35.3176  -49.2748  -54.4919 C.3       3 UNK        -0.1971 
     59 N          33.9815  -49.3991  -52.4335 N.am      3 UNK        -0.4139 
     60 C          34.7247  -49.1986  -51.3420 C.2       2 UNK         0.5016 
     61 O          35.8849  -49.5956  -51.2156 O.2       2 UNK        -0.5319 
     62 CA         34.0836  -48.3626  -50.2301 C.3       2 UNK         0.0286 
     63 CB         34.5643  -48.7788  -48.8251 C.3       2 UNK        -0.1963 
     64 N          34.4133  -46.9622  -50.4809 N.am      2 UNK        -0.4790 
     65 C          33.6887  -45.9185  -50.0642 C.2       1 UNK         0.5024 
     66 O          32.6471  -46.0301  -49.4117 O.2       1 UNK        -0.4888 
     67 H67        34.6848  -41.6651  -47.0206 H         1 UNK         0.0892 
     68 H68        33.5198  -42.8331  -46.3901 H         1 UNK         0.0892 
     69 H69        33.0820  -41.7941  -47.7475 H         1 UNK         0.0892 
     70 H70        33.0822  -42.9276  -49.6836 H         1 UNK         0.3107 
     71 H71        35.2959  -44.5796  -50.5107 H         1 UNK         0.0773 
     72 H72        34.2513  -43.1995  -52.1881 H         1 UNK         0.0680 
     73 H73        33.9764  -44.8546  -52.6185 H         1 UNK         0.0680 
     74 H74        30.2443  -45.3034  -52.6092 H         1 UNK         0.0650 
     75 H75        31.8176  -46.0558  -52.5722 H         1 UNK         0.0650 
     76 H76        33.2457  -46.0341  -54.5929 H         1 UNK         0.1397 
     77 H77        31.6385  -44.4014  -58.2197 H         1 UNK         0.1363 
     78 H78        29.5649  -43.8324  -54.5125 H         1 UNK         0.1355 
     79 H79        28.8800  -42.5961  -56.4700 H         1 UNK         0.0707 
     80 H80        29.8824  -42.5752  -57.9046 H         1 UNK         0.0707 
     81 H81        26.6741  -43.4699  -59.5876 H         1 UNK         0.1034 
     82 H82        27.4674  -42.1699  -58.7415 H         1 UNK         0.1034 
     83 H83        26.1275  -42.6131  -56.6985 H         1 UNK         0.0482 
     84 H84        24.0805  -40.1335  -58.1969 H         1 UNK         0.3460 
     85 H85        25.3919  -40.4856  -57.1029 H         1 UNK         0.3460 
     86 H86        25.7313  -45.1233  -57.7567 H         1 UNK         0.2989 
     87 H87        24.2355  -46.3731  -55.3207 H         1 UNK         0.0559 
     88 H88        22.1911  -47.5222  -56.2208 H         1 UNK         0.0848 
     89 H89        21.9411  -46.1803  -57.3380 H         1 UNK         0.0848 
     90 H90        21.8475  -45.9143  -55.6067 H         1 UNK         0.0848 
     91 H91        25.3944  -47.5732  -56.7196 H         1 UNK         0.3144 
     92 H92        24.9278  -48.8502  -59.8724 H         1 UNK         0.0727 
     93 H93        27.1703  -48.1126  -60.6536 H         1 UNK         0.0790 
     94 H94        27.1638  -46.7821  -59.4990 H         1 UNK         0.0790 
     95 H95        26.0105  -46.8060  -60.8257 H         1 UNK         0.0790 
     96 H96        27.2293  -48.7959  -58.1126 H         1 UNK         0.3215 
     97 H97        25.9948  -50.8309  -55.6080 H         1 UNK         0.0863 
     98 H98        27.6666  -52.6031  -56.1823 H         1 UNK         0.0808 
     99 H99        27.6766  -52.0568  -57.8594 H         1 UNK         0.0808 
    100 H100       26.2183  -52.7484  -57.1649 H         1 UNK         0.0808 
    101 H101       28.6949  -50.3137  -56.3200 H         1 UNK         0.3118 
    102 H102       28.9467  -46.9343  -55.4022 H         1 UNK         0.0546 
    103 H103       29.4807  -49.2615  -53.4755 H         1 UNK         0.0828 
    104 H104       28.6855  -47.7403  -53.0900 H         1 UNK         0.0828 
    105 H105       30.3961  -47.7619  -53.4958 H         1 UNK         0.0828 
    106 H106       30.9469  -48.9413  -55.5640 H         1 UNK         0.3005 
    107 H107       31.0017  -49.4621  -59.0095 H         1 UNK         0.1257 
    108 H108       33.0254  -48.4048  -59.4586 H         1 UNK         0.0775 
    109 H109       32.0431  -47.0738  -58.9406 H         1 UNK         0.0775 
    110 H110       34.6818  -45.4706  -56.7584 H         1 UNK         0.0840 
    111 H111       33.8098  -45.3932  -58.2658 H         1 UNK         0.0840 
    112 H112       32.9979  -49.9907  -57.0769 H         1 UNK         0.2987 
    113 H113       31.4850  -52.6051  -55.3195 H         1 UNK         0.0785 
    114 H114       33.5186  -53.0222  -57.5776 H         1 UNK         0.0798 
    115 H115       31.9827  -53.8642  -57.4269 H         1 UNK         0.0798 
    116 H116       33.2320  -54.1135  -56.2205 H         1 UNK         0.0798 
    117 H117       34.2003  -51.9769  -55.3808 H         1 UNK         0.3079 
    118 H118       34.9228  -51.0470  -53.3087 H         1 UNK         0.0794 
    119 H119       34.8628  -48.3093  -54.7129 H         1 UNK         0.0786 
    120 H120       35.5470  -49.7584  -55.4422 H         1 UNK         0.0786 
    121 H121       36.2675  -49.0839  -53.9924 H         1 UNK         0.0786 
    122 H122       33.0235  -49.0719  -52.4729 H         1 UNK         0.3032 
    123 H123       33.0007  -48.5021  -50.2786 H         1 UNK         0.1094 
    124 H124       34.0415  -48.2237  -48.0460 H         1 UNK         0.0794 
    125 H125       34.3780  -49.8387  -48.6476 H         1 UNK         0.0794 
    126 H126       35.6336  -48.6074  -48.6952 H         1 UNK         0.0794 
    127 H127       35.2484  -46.8049  -51.0305 H         1 UNK         0.3016 
@<TRIPOS>BOND
     1    1    2 1    
     2    1   67 1    
     3    1   68 1    
     4    1   69 1    
     5    2    3 2    
     6    2    4 am   BACKBONE|DICT|INTERRES
     7    4    5 1    
     8    4   70 1    
     9    5    6 1    
    10    5   65 1    
    11    5   71 1    
    12    6    7 1    
    13    6   72 1    
    14    6   73 1    
    15    7    8 1    
    16    8    9 1    
    17    8   74 1    
    18    8   75 1    
    19    9   10 ar   
    20    9   14 ar   
    21   10   11 ar   
    22   10   76 1    
    23   11   12 ar   
    24   11   48 1    
    25   12   13 ar   
    26   12   77 1    
    27   13   14 ar   
    28   13   15 1    
    29   14   78 1    
    30   15   16 1    
    31   15   79 1    
    32   15   80 1    
    33   16   17 1    
    34   17   18 1    
    35   17   81 1    
    36   17   82 1    
    37   18   19 1    
    38   18   22 1    
    39   18   83 1    
    40   19   20 am   BACKBONE|DICT|INTERRES
    41   19   21 2    
    42   20   84 1    
    43   20   85 1    
    44   22   23 am   BACKBONE|DICT|INTERRES
    45   22   86 1    
    46   23   24 2    
    47   23   25 1    
    48   25   26 1    
    49   25   27 1    
    50   25   87 1    
    51   26   88 1    
    52   26   89 1    
    53   26   90 1    
    54   27   28 am   BACKBONE|DICT|INTERRES
    55   27   91 1    
    56   28   29 2    
    57   28   30 1    
    58   30   31 1    
    59   30   32 1    
    60   30   92 1    
    61   31   93 1    
    62   31   94 1    
    63   31   95 1    
    64   32   33 am   BACKBONE|DICT|INTERRES
    65   32   96 1    
    66   33   34 2    
    67   33   35 1    
    68   35   36 1    
    69   35   37 1    
    70   35   97 1    
    71   36   98 1    
    72   36   99 1    
    73   36  100 1    
    74   37   38 am   BACKBONE|DICT|INTERRES
    75   37  101 1    
    76   38   39 2    
    77   38   40 1    
    78   40   41 1    
    79   40   42 1    
    80   40  102 1    
    81   41  103 1    
    82   41  104 1    
    83   41  105 1    
    84   42   43 am   BACKBONE|DICT|INTERRES
    85   42  106 1    
    86   43   44 2    
    87   43   45 1    
    88   45   46 1    
    89   45   49 1    
    90   45  107 1    
    91   46   47 1    
    92   46  108 1    
    93   46  109 1    
    94   47   48 1    
    95   48  110 1    
    96   48  111 1    
    97   49   50 am   BACKBONE|DICT|INTERRES
    98   49  112 1    
    99   50   51 2    
   100   50   52 1    
   101   52   53 1    
   102   52   54 1    
   103   52  113 1    
   104   53  114 1    
   105   53  115 1    
   106   53  116 1    
   107   54   55 am   BACKBONE|DICT|INTERRES
   108   54  117 1    
   109   55   56 2    
   110   55   57 1    
   111   57   58 1    
   112   57   59 1    
   113   57  118 1    
   114   58  119 1    
   115   58  120 1    
   116   58  121 1    
   117   59   60 am   BACKBONE|DICT|INTERRES
   118   59  122 1    
   119   60   61 2    
   120   60   62 1    
   121   62   63 1    
   122   62   64 1    
   123   62  123 1    
   124   63  124 1    
   125   63  125 1    
   126   63  126 1    
   127   64   65 am   BACKBONE|DICT|INTERRES
   128   64  127 1    
   129   65   66 2    
@<TRIPOS>SUBSTRUCTURE
     1 UNK         1 GROUP             0       ****    0 ROOT    
