@<TRIPOS>MOLECULE
3R134
127   129    1
SMALL
USER_CHARGES


@<TRIPOS>ATOM
      1 CA         37.1581  -40.4054  -55.2445 C.3       0 UNK        -0.1968 
      2 C          36.1443  -41.4728  -54.8595 C.2       0 UNK         0.4852 
      3 O          35.2050  -41.7255  -55.6160 O.2       0 UNK        -0.5359 
      4 N          36.3215  -42.0977  -53.6879 N.am      1 UNK        -0.4300 
      5 CA         35.4812  -43.1851  -53.1868 C.3       1 UNK         0.0863 
      6 C6         35.5600  -43.2878  -51.6409 C.3       11 UNK        -0.0953 
      7 S7         34.4162  -44.5195  -50.9235 S.3       11 UNK        -0.2369 
      8 C8         32.8861  -43.5579  -50.7172 C.3       11 UNK         0.0226 
      9 C9         31.7368  -44.2066  -51.4723 C.ar      11 UNK        -0.0699 
     10 C10        30.8862  -45.1111  -50.8270 C.ar      11 UNK        -0.0804 
     11 C11        29.8257  -45.7056  -51.5196 C.ar      11 UNK        -0.0871 
     12 C12        29.6252  -45.3958  -52.8674 C.ar      11 UNK        -0.1008 
     13 C13        30.4700  -44.4939  -53.5198 C.ar      11 UNK        -0.0735 
     14 C14        31.5206  -43.8988  -52.8183 C.ar      11 UNK        -0.0945 
     15 C15        30.2364  -44.1574  -54.9803 C.3       11 UNK         0.0169 
     16 S16        30.9142  -45.4573  -56.0541 S.3       11 UNK        -0.2669 
     17 C17        30.5063  -44.8366  -57.7266 C.3       11 UNK        -0.0850 
     18 CA         29.0266  -44.4045  -57.9321 C.3       10 UNK         0.0855 
     19 C          28.7583  -43.9859  -59.4083 C.2       10 UNK         0.5543 
     20 N          27.7998  -44.5759  -60.1143 N.am      10 UNK        -0.7343 
     21 O          29.4343  -43.0988  -59.9228 O.2       10 UNK        -0.5027 
     22 N          28.0944  -45.4113  -57.4072 N.am      10 UNK        -0.4495 
     23 C          26.8410  -45.1776  -57.0012 C.2       10 UNK         0.4903 
     24 O          26.3297  -44.0582  -56.9522 O.2       10 UNK        -0.4860 
     25 CA         26.0315  -46.4241  -56.5903 C.3       9 UNK         0.0227 
     26 CB         24.5072  -46.1860  -56.5943 C.3       9 UNK        -0.1964 
     27 N          26.3796  -47.6100  -57.3854 N.am      9 UNK        -0.4231 
     28 C          26.2824  -47.7460  -58.7201 C.2       9 UNK         0.5014 
     29 O          25.8540  -46.8645  -59.4661 O.2       9 UNK        -0.5270 
     30 CA         26.7770  -49.0580  -59.3474 C.3       8 UNK         0.0284 
     31 CB         28.1456  -48.8529  -60.0182 C.3       8 UNK        -0.1977 
     32 N          26.8582  -50.1417  -58.3645 N.am      8 UNK        -0.4342 
     33 C          26.3532  -51.3683  -58.5412 C.2       8 UNK         0.5039 
     34 O          25.8773  -51.7783  -59.6011 O.2       8 UNK        -0.5547 
     35 CA         26.3454  -52.2839  -57.3068 C.3       7 UNK         0.0281 
     36 CB         27.7454  -52.8659  -57.0494 C.3       7 UNK        -0.1963 
     37 N          25.8712  -51.5998  -56.1011 N.am      7 UNK        -0.4444 
     38 C          24.6530  -51.0731  -55.9150 C.2       7 UNK         0.5104 
     39 O          23.7472  -51.1440  -56.7457 O.2       7 UNK        -0.5100 
     40 CA         24.3860  -50.3242  -54.5909 C.3       6 UNK         0.0396 
     41 CB         23.7088  -51.2509  -53.5624 C.3       6 UNK        -0.1801 
     42 N          25.5507  -49.6335  -54.0095 N.am      6 UNK        -0.4747 
     43 C          26.6769  -50.1699  -53.5165 C.2       6 UNK         0.5012 
     44 O          26.8911  -51.3823  -53.4553 O.2       6 UNK        -0.5003 
     45 CA         27.7854  -49.1936  -53.0843 C.3       5 UNK         0.0782 
     46 C46        28.0387  -49.2901  -51.5551 C.3       11 UNK        -0.0868 
     47 S47        29.5208  -48.3828  -50.9892 S.3       11 UNK        -0.2515 
     48 C48        28.8978  -46.6845  -50.8181 C.3       11 UNK         0.0199 
     49 N          29.0048  -49.4213  -53.8611 N.am      5 UNK        -0.4607 
     50 C          29.1484  -49.3697  -55.1910 C.2       4 UNK         0.5031 
     51 O          28.2142  -49.1951  -55.9805 O.2       4 UNK        -0.5119 
     52 CA         30.5931  -49.4959  -55.7125 C.3       4 UNK         0.0263 
     53 CB         30.7112  -49.1859  -57.2141 C.3       4 UNK        -0.1967 
     54 N          31.4979  -48.6119  -54.9694 N.am      4 UNK        -0.4237 
     55 C          32.0933  -48.9213  -53.8093 C.2       3 UNK         0.4908 
     56 O          31.9733  -50.0216  -53.2672 O.2       3 UNK        -0.5102 
     57 CA         32.9044  -47.8082  -53.1187 C.3       3 UNK         0.0241 
     58 CB         33.8651  -48.3512  -52.0400 C.3       3 UNK        -0.1971 
     59 N          33.6174  -46.9228  -54.0460 N.am      3 UNK        -0.4139 
     60 C          34.5670  -47.2555  -54.9356 C.2       2 UNK         0.5016 
     61 O          34.9379  -48.4085  -55.1575 O.2       2 UNK        -0.5319 
     62 CA         35.2372  -46.0955  -55.6974 C.3       2 UNK         0.0286 
     63 CB         34.6507  -45.9491  -57.1106 C.3       2 UNK        -0.1963 
     64 N          35.1295  -44.8163  -54.9864 N.am      2 UNK        -0.4790 
     65 C          35.8559  -44.4974  -53.9057 C.2       1 UNK         0.5024 
     66 O          36.7874  -45.1848  -53.4826 O.2       1 UNK        -0.4888 
     67 H67        36.6584  -39.4474  -55.3855 H         1 UNK         0.0892 
     68 H68        37.9266  -40.2779  -54.4823 H         1 UNK         0.0892 
     69 H69        37.6490  -40.6748  -56.1793 H         1 UNK         0.0892 
     70 H70        37.1260  -41.8690  -53.1210 H         1 UNK         0.3107 
     71 H71        34.4460  -42.9472  -53.4358 H         1 UNK         0.0773 
     72 H72        35.3536  -42.3164  -51.1889 H         1 UNK         0.0680 
     73 H73        36.5726  -43.5471  -51.3263 H         1 UNK         0.0680 
     74 H74        33.0228  -42.5327  -51.0637 H         1 UNK         0.0650 
     75 H75        32.6513  -43.4906  -49.6539 H         1 UNK         0.0650 
     76 H76        31.0520  -45.3554  -49.7865 H         1 UNK         0.1397 
     77 H77        28.8143  -45.8585  -53.4131 H         1 UNK         0.1363 
     78 H78        32.1658  -43.1927  -53.3205 H         1 UNK         0.1355 
     79 H79        29.1643  -44.0504  -55.1456 H         1 UNK         0.0707 
     80 H80        30.6910  -43.1991  -55.2363 H         1 UNK         0.0707 
     81 H81        31.1743  -44.0016  -57.9468 H         1 UNK         0.1034 
     82 H82        30.7697  -45.6219  -58.4377 H         1 UNK         0.1034 
     83 H83        28.8737  -43.4895  -57.3581 H         1 UNK         0.0482 
     84 H84        27.2114  -45.2935  -59.7083 H         1 UNK         0.3460 
     85 H85        27.6440  -44.2842  -61.0659 H         1 UNK         0.3460 
     86 H86        28.4309  -46.3617  -57.4017 H         1 UNK         0.2989 
     87 H87        26.3280  -46.6494  -55.5650 H         1 UNK         0.0559 
     88 H88        24.1464  -45.8917  -57.5804 H         1 UNK         0.0848 
     89 H89        24.2329  -45.3918  -55.8990 H         1 UNK         0.0848 
     90 H90        23.9643  -47.0817  -56.2929 H         1 UNK         0.0848 
     91 H91        26.8587  -48.3373  -56.8615 H         1 UNK         0.3144 
     92 H92        26.0525  -49.3171  -60.1225 H         1 UNK         0.0727 
     93 H93        28.8896  -48.4817  -59.3154 H         1 UNK         0.0790 
     94 H94        28.0752  -48.1234  -60.8262 H         1 UNK         0.0790 
     95 H95        28.5206  -49.7806  -60.4507 H         1 UNK         0.0790 
     96 H96        27.2763  -49.9222  -57.4648 H         1 UNK         0.3215 
     97 H97        25.6606  -53.1102  -57.5094 H         1 UNK         0.0863 
     98 H98        27.7320  -53.5796  -56.2255 H         1 UNK         0.0808 
     99 H99        28.4711  -52.0888  -56.8068 H         1 UNK         0.0808 
    100 H100       28.1152  -53.3946  -57.9291 H         1 UNK         0.0808 
    101 H101       26.5143  -51.5395  -55.3172 H         1 UNK         0.3118 
    102 H102       23.6740  -49.5325  -54.8302 H         1 UNK         0.0546 
    103 H103       24.3430  -52.0946  -53.2896 H         1 UNK         0.0828 
    104 H104       22.7819  -51.6630  -53.9636 H         1 UNK         0.0828 
    105 H105       23.4544  -50.7126  -52.6496 H         1 UNK         0.0828 
    106 H106       25.4876  -48.6255  -54.0399 H         1 UNK         0.3005 
    107 H107       27.4617  -48.1758  -53.3090 H         1 UNK         0.1257 
    108 H108       28.1828  -50.3316  -51.2597 H         1 UNK         0.0775 
    109 H109       27.1681  -48.9402  -50.9972 H         1 UNK         0.0775 
    110 H110       27.8911  -46.5999  -51.2299 H         1 UNK         0.0840 
    111 H111       28.8142  -46.4384  -49.7584 H         1 UNK         0.0840 
    112 H112       29.8361  -49.6005  -53.3112 H         1 UNK         0.2987 
    113 H113       30.8980  -50.5341  -55.5651 H         1 UNK         0.0785 
    114 H114       30.1104  -49.8810  -57.8016 H         1 UNK         0.0798 
    115 H115       31.7412  -49.2818  -57.5580 H         1 UNK         0.0798 
    116 H116       30.3748  -48.1752  -57.4447 H         1 UNK         0.0798 
    117 H117       31.5945  -47.6680  -55.3215 H         1 UNK         0.3079 
    118 H118       32.1708  -47.1804  -52.6117 H         1 UNK         0.0794 
    119 H119       33.3177  -48.8851  -51.2621 H         1 UNK         0.0786 
    120 H120       34.4108  -47.5438  -51.5522 H         1 UNK         0.0786 
    121 H121       34.5950  -49.0433  -52.4609 H         1 UNK         0.0786 
    122 H122       33.3821  -45.9435  -53.9716 H         1 UNK         0.3032 
    123 H123       36.2954  -46.3489  -55.7978 H         1 UNK         0.1094 
    124 H124       33.6023  -45.6559  -57.0895 H         1 UNK         0.0794 
    125 H125       35.1944  -45.2011  -57.6879 H         1 UNK         0.0794 
    126 H126       34.7147  -46.8898  -57.6595 H         1 UNK         0.0794 
    127 H127       34.4483  -44.1519  -55.3297 H         1 UNK         0.3016 
@<TRIPOS>BOND
     1    1    2 1    
     2    1   67 1    
     3    1   68 1    
     4    1   69 1    
     5    2    3 2    
     6    2    4 am   BACKBONE|DICT|INTERRES
     7    4    5 1    
     8    4   70 1    
     9    5    6 1    
    10    5   65 1    
    11    5   71 1    
    12    6    7 1    
    13    6   72 1    
    14    6   73 1    
    15    7    8 1    
    16    8    9 1    
    17    8   74 1    
    18    8   75 1    
    19    9   10 ar   
    20    9   14 ar   
    21   10   11 ar   
    22   10   76 1    
    23   11   12 ar   
    24   11   48 1    
    25   12   13 ar   
    26   12   77 1    
    27   13   14 ar   
    28   13   15 1    
    29   14   78 1    
    30   15   16 1    
    31   15   79 1    
    32   15   80 1    
    33   16   17 1    
    34   17   18 1    
    35   17   81 1    
    36   17   82 1    
    37   18   19 1    
    38   18   22 1    
    39   18   83 1    
    40   19   20 am   BACKBONE|DICT|INTERRES
    41   19   21 2    
    42   20   84 1    
    43   20   85 1    
    44   22   23 am   BACKBONE|DICT|INTERRES
    45   22   86 1    
    46   23   24 2    
    47   23   25 1    
    48   25   26 1    
    49   25   27 1    
    50   25   87 1    
    51   26   88 1    
    52   26   89 1    
    53   26   90 1    
    54   27   28 am   BACKBONE|DICT|INTERRES
    55   27   91 1    
    56   28   29 2    
    57   28   30 1    
    58   30   31 1    
    59   30   32 1    
    60   30   92 1    
    61   31   93 1    
    62   31   94 1    
    63   31   95 1    
    64   32   33 am   BACKBONE|DICT|INTERRES
    65   32   96 1    
    66   33   34 2    
    67   33   35 1    
    68   35   36 1    
    69   35   37 1    
    70   35   97 1    
    71   36   98 1    
    72   36   99 1    
    73   36  100 1    
    74   37   38 am   BACKBONE|DICT|INTERRES
    75   37  101 1    
    76   38   39 2    
    77   38   40 1    
    78   40   41 1    
    79   40   42 1    
    80   40  102 1    
    81   41  103 1    
    82   41  104 1    
    83   41  105 1    
    84   42   43 am   BACKBONE|DICT|INTERRES
    85   42  106 1    
    86   43   44 2    
    87   43   45 1    
    88   45   46 1    
    89   45   49 1    
    90   45  107 1    
    91   46   47 1    
    92   46  108 1    
    93   46  109 1    
    94   47   48 1    
    95   48  110 1    
    96   48  111 1    
    97   49   50 am   BACKBONE|DICT|INTERRES
    98   49  112 1    
    99   50   51 2    
   100   50   52 1    
   101   52   53 1    
   102   52   54 1    
   103   52  113 1    
   104   53  114 1    
   105   53  115 1    
   106   53  116 1    
   107   54   55 am   BACKBONE|DICT|INTERRES
   108   54  117 1    
   109   55   56 2    
   110   55   57 1    
   111   57   58 1    
   112   57   59 1    
   113   57  118 1    
   114   58  119 1    
   115   58  120 1    
   116   58  121 1    
   117   59   60 am   BACKBONE|DICT|INTERRES
   118   59  122 1    
   119   60   61 2    
   120   60   62 1    
   121   62   63 1    
   122   62   64 1    
   123   62  123 1    
   124   63  124 1    
   125   63  125 1    
   126   63  126 1    
   127   64   65 am   BACKBONE|DICT|INTERRES
   128   64  127 1    
   129   65   66 2    
@<TRIPOS>SUBSTRUCTURE
     1 UNK         1 GROUP             0       ****    0 ROOT    
