@<TRIPOS>MOLECULE
3R134
127   129    1
SMALL
USER_CHARGES


@<TRIPOS>ATOM
      1 CA         33.1193  -42.3574  -57.6148 C.3       0 UNK        -0.1968 
      2 C          33.8048  -43.1831  -56.5358 C.2       0 UNK         0.4852 
      3 O          35.0199  -43.3749  -56.5985 O.2       0 UNK        -0.5359 
      4 N          33.0269  -43.6679  -55.5565 N.am      1 UNK        -0.4300 
      5 CA         33.4484  -44.5001  -54.4196 C.3       1 UNK         0.0863 
      6 C6         34.3981  -43.7749  -53.4206 C.3       11 UNK        -0.0953 
      7 S7         33.8817  -42.0805  -52.9694 S.3       11 UNK        -0.2369 
      8 C8         32.9227  -42.3346  -51.4423 C.3       11 UNK         0.0226 
      9 C9         31.5109  -42.8290  -51.7253 C.ar      11 UNK        -0.0699 
     10 C10        31.0881  -44.0725  -51.2487 C.ar      11 UNK        -0.0804 
     11 C11        29.7925  -44.5305  -51.5115 C.ar      11 UNK        -0.0871 
     12 C12        28.9090  -43.7200  -52.2296 C.ar      11 UNK        -0.1008 
     13 C13        29.3229  -42.4794  -52.7244 C.ar      11 UNK        -0.0735 
     14 C14        30.6219  -42.0361  -52.4585 C.ar      11 UNK        -0.0945 
     15 C15        28.3831  -41.6255  -53.5708 C.3       11 UNK         0.0169 
     16 S16        27.6548  -42.5293  -54.9829 S.3       11 UNK        -0.2669 
     17 C17        29.1162  -43.3786  -55.6731 C.3       11 UNK        -0.0850 
     18 CA         28.8612  -44.0586  -57.0426 C.3       10 UNK         0.0855 
     19 C          30.1181  -44.8203  -57.5256 C.2       10 UNK         0.5543 
     20 N          30.5101  -44.6525  -58.7794 N.am      10 UNK        -0.7343 
     21 O          30.7584  -45.5360  -56.7568 O.2       10 UNK        -0.5027 
     22 N          27.7446  -45.0056  -56.9900 N.am      10 UNK        -0.4495 
     23 C          26.6827  -44.9923  -57.8025 C.2       10 UNK         0.4903 
     24 O          26.4720  -44.1306  -58.6583 O.2       10 UNK        -0.4860 
     25 CA         25.7112  -46.1733  -57.6320 C.3       9 UNK         0.0227 
     26 CB         24.4965  -46.1173  -58.5829 C.3       9 UNK        -0.1964 
     27 N          26.4169  -47.4541  -57.7387 N.am      9 UNK        -0.4231 
     28 C          27.0777  -47.9454  -58.7994 C.2       9 UNK         0.5014 
     29 O          27.1143  -47.4070  -59.9064 O.2       9 UNK        -0.5270 
     30 CA         27.8524  -49.2602  -58.5901 C.3       8 UNK         0.0284 
     31 CB         29.3491  -48.9634  -58.3962 C.3       8 UNK        -0.1977 
     32 N          27.3722  -50.0520  -57.4544 N.am      8 UNK        -0.4342 
     33 C          26.1868  -50.6754  -57.3922 C.2       8 UNK         0.5039 
     34 O          25.3727  -50.7001  -58.3157 O.2       8 UNK        -0.5547 
     35 CA         25.8430  -51.3615  -56.0622 C.3       7 UNK         0.0281 
     36 CB         26.4947  -52.7517  -55.9801 C.3       7 UNK        -0.1963 
     37 N          26.2641  -50.5467  -54.9195 N.am      7 UNK        -0.4444 
     38 C          25.5544  -49.5266  -54.4159 C.2       7 UNK         0.5104 
     39 O          24.4440  -49.1948  -54.8304 O.2       7 UNK        -0.5100 
     40 CA         26.1915  -48.7304  -53.2620 C.3       6 UNK         0.0396 
     41 CB         25.7995  -49.3376  -51.9062 C.3       6 UNK        -0.1801 
     42 N          27.6506  -48.6545  -53.3554 N.am      6 UNK        -0.4747 
     43 C          28.3142  -47.9281  -54.2652 C.2       6 UNK         0.5012 
     44 O          27.7660  -47.2096  -55.1013 O.2       6 UNK        -0.5003 
     45 CA         29.8476  -48.0574  -54.2780 C.3       5 UNK         0.0782 
     46 C46        30.5331  -46.9583  -53.4389 C.3       11 UNK        -0.0868 
     47 S47        30.4763  -47.2320  -51.6297 S.3       11 UNK        -0.2515 
     48 C48        29.3503  -45.9160  -51.0581 C.3       11 UNK         0.0199 
     49 N          30.3483  -49.3847  -53.9197 N.am      5 UNK        -0.4607 
     50 C          30.0823  -50.5341  -54.5468 C.2       4 UNK         0.5031 
     51 O          29.2299  -50.6468  -55.4281 O.2       4 UNK        -0.5119 
     52 CA         30.9585  -51.7317  -54.1406 C.3       4 UNK         0.0263 
     53 CB         30.6576  -52.9943  -54.9681 C.3       4 UNK        -0.1967 
     54 N          32.3656  -51.3680  -54.3158 N.am      4 UNK        -0.4237 
     55 C          33.1278  -50.7439  -53.4099 C.2       3 UNK         0.4908 
     56 O          32.7676  -50.5205  -52.2543 O.2       3 UNK        -0.5102 
     57 CA         34.4884  -50.2156  -53.8935 C.3       3 UNK         0.0241 
     58 CB         35.3544  -51.3247  -54.5270 C.3       3 UNK        -0.1971 
     59 N          34.3696  -49.0478  -54.7802 N.am      3 UNK        -0.4139 
     60 C          33.7916  -48.9633  -55.9872 C.2       2 UNK         0.5016 
     61 O          33.2372  -49.9120  -56.5464 O.2       2 UNK        -0.5319 
     62 CA         33.8664  -47.5957  -56.6993 C.3       2 UNK         0.0286 
     63 CB         33.1283  -47.5974  -58.0515 C.3       2 UNK        -0.1963 
     64 N          33.3706  -46.4629  -55.9082 N.am      2 UNK        -0.4790 
     65 C          34.0190  -45.8588  -54.9001 C.2       1 UNK         0.5024 
     66 O          35.0409  -46.3217  -54.3885 O.2       1 UNK        -0.4888 
     67 H67        33.1792  -42.8715  -58.5738 H         1 UNK         0.0892 
     68 H68        32.0679  -42.1801  -57.3904 H         1 UNK         0.0892 
     69 H69        33.6098  -41.3896  -57.7150 H         1 UNK         0.0892 
     70 H70        32.0381  -43.4759  -55.5865 H         1 UNK         0.3107 
     71 H71        32.5334  -44.7335  -53.8749 H         1 UNK         0.0773 
     72 H72        34.5113  -44.3659  -52.5102 H         1 UNK         0.0680 
     73 H73        35.3989  -43.6917  -53.8483 H         1 UNK         0.0680 
     74 H74        33.4594  -43.0167  -50.7813 H         1 UNK         0.0650 
     75 H75        32.8577  -41.3837  -50.9118 H         1 UNK         0.0650 
     76 H76        31.7721  -44.6968  -50.6900 H         1 UNK         0.1397 
     77 H77        27.9073  -44.0688  -52.4422 H         1 UNK         0.1363 
     78 H78        30.9524  -41.0770  -52.8334 H         1 UNK         0.1355 
     79 H79        27.5780  -41.2493  -52.9383 H         1 UNK         0.0707 
     80 H80        28.9052  -40.7493  -53.9585 H         1 UNK         0.0707 
     81 H81        29.9219  -42.6481  -55.7603 H         1 UNK         0.1034 
     82 H82        29.4471  -44.1200  -54.9456 H         1 UNK         0.1034 
     83 H83        28.6474  -43.2645  -57.7608 H         1 UNK         0.0482 
     84 H84        31.3246  -45.1431  -59.1092 H         1 UNK         0.3460 
     85 H85        29.9808  -44.0768  -59.4154 H         1 UNK         0.3460 
     86 H86        27.8400  -45.7711  -56.3271 H         1 UNK         0.2989 
     87 H87        25.3316  -46.1181  -56.6104 H         1 UNK         0.0559 
     88 H88        23.9175  -45.2078  -58.4187 H         1 UNK         0.0848 
     89 H89        23.8274  -46.9622  -58.4202 H         1 UNK         0.0848 
     90 H90        24.7962  -46.1240  -59.6312 H         1 UNK         0.0848 
     91 H91        26.5219  -47.9548  -56.8661 H         1 UNK         0.3144 
     92 H92        27.7336  -49.8624  -59.4932 H         1 UNK         0.0727 
     93 H93        29.5219  -48.3247  -57.5302 H         1 UNK         0.0790 
     94 H94        29.7600  -48.4466  -59.2646 H         1 UNK         0.0790 
     95 H95        29.9264  -49.8782  -58.2591 H         1 UNK         0.0790 
     96 H96        28.0155  -50.1638  -56.6711 H         1 UNK         0.3215 
     97 H97        24.7595  -51.4954  -56.0227 H         1 UNK         0.0863 
     98 H98        26.2427  -53.2542  -55.0462 H         1 UNK         0.0808 
     99 H99        27.5812  -52.6980  -56.0508 H         1 UNK         0.0808 
    100 H100       26.1490  -53.3896  -56.7946 H         1 UNK         0.0808 
    101 H101       27.1983  -50.7083  -54.5666 H         1 UNK         0.3118 
    102 H102       25.7958  -47.7132  -53.3040 H         1 UNK         0.0546 
    103 H103       26.1785  -50.3539  -51.7916 H         1 UNK         0.0828 
    104 H104       24.7148  -49.3807  -51.7979 H         1 UNK         0.0828 
    105 H105       26.1821  -48.7403  -51.0784 H         1 UNK         0.0828 
    106 H106       28.1880  -49.2067  -52.7021 H         1 UNK         0.3005 
    107 H107       30.1456  -47.8934  -55.3156 H         1 UNK         0.1257 
    108 H108       31.5876  -46.9314  -53.7073 H         1 UNK         0.0775 
    109 H109       30.1439  -45.9756  -53.7031 H         1 UNK         0.0775 
    110 H110       28.3438  -46.1415  -51.4148 H         1 UNK         0.0840 
    111 H111       29.3036  -45.9365  -49.9686 H         1 UNK         0.0840 
    112 H112       31.0396  -49.4033  -53.1797 H         1 UNK         0.2987 
    113 H113       30.7582  -51.9549  -53.0906 H         1 UNK         0.0785 
    114 H114       29.6278  -53.3207  -54.8198 H         1 UNK         0.0798 
    115 H115       31.3037  -53.8222  -54.6760 H         1 UNK         0.0798 
    116 H116       30.7968  -52.8208  -56.0361 H         1 UNK         0.0798 
    117 H117       32.7006  -51.3343  -55.2747 H         1 UNK         0.3079 
    118 H118       35.0167  -49.8626  -53.0063 H         1 UNK         0.0794 
    119 H119       36.3576  -50.9599  -54.7478 H         1 UNK         0.0786 
    120 H120       34.9308  -51.7074  -55.4557 H         1 UNK         0.0786 
    121 H121       35.4616  -52.1706  -53.8467 H         1 UNK         0.0786 
    122 H122       34.7664  -48.1827  -54.4198 H         1 UNK         0.3032 
    123 H123       34.9242  -47.4200  -56.9083 H         1 UNK         0.1094 
    124 H124       32.0585  -47.7648  -57.9228 H         1 UNK         0.0794 
    125 H125       33.2595  -46.6509  -58.5759 H         1 UNK         0.0794 
    126 H126       33.5061  -48.3829  -58.7074 H         1 UNK         0.0794 
    127 H127       32.5015  -46.0468  -56.2365 H         1 UNK         0.3016 
@<TRIPOS>BOND
     1    1    2 1    
     2    1   67 1    
     3    1   68 1    
     4    1   69 1    
     5    2    3 2    
     6    2    4 am   BACKBONE|DICT|INTERRES
     7    4    5 1    
     8    4   70 1    
     9    5    6 1    
    10    5   65 1    
    11    5   71 1    
    12    6    7 1    
    13    6   72 1    
    14    6   73 1    
    15    7    8 1    
    16    8    9 1    
    17    8   74 1    
    18    8   75 1    
    19    9   10 ar   
    20    9   14 ar   
    21   10   11 ar   
    22   10   76 1    
    23   11   12 ar   
    24   11   48 1    
    25   12   13 ar   
    26   12   77 1    
    27   13   14 ar   
    28   13   15 1    
    29   14   78 1    
    30   15   16 1    
    31   15   79 1    
    32   15   80 1    
    33   16   17 1    
    34   17   18 1    
    35   17   81 1    
    36   17   82 1    
    37   18   19 1    
    38   18   22 1    
    39   18   83 1    
    40   19   20 am   BACKBONE|DICT|INTERRES
    41   19   21 2    
    42   20   84 1    
    43   20   85 1    
    44   22   23 am   BACKBONE|DICT|INTERRES
    45   22   86 1    
    46   23   24 2    
    47   23   25 1    
    48   25   26 1    
    49   25   27 1    
    50   25   87 1    
    51   26   88 1    
    52   26   89 1    
    53   26   90 1    
    54   27   28 am   BACKBONE|DICT|INTERRES
    55   27   91 1    
    56   28   29 2    
    57   28   30 1    
    58   30   31 1    
    59   30   32 1    
    60   30   92 1    
    61   31   93 1    
    62   31   94 1    
    63   31   95 1    
    64   32   33 am   BACKBONE|DICT|INTERRES
    65   32   96 1    
    66   33   34 2    
    67   33   35 1    
    68   35   36 1    
    69   35   37 1    
    70   35   97 1    
    71   36   98 1    
    72   36   99 1    
    73   36  100 1    
    74   37   38 am   BACKBONE|DICT|INTERRES
    75   37  101 1    
    76   38   39 2    
    77   38   40 1    
    78   40   41 1    
    79   40   42 1    
    80   40  102 1    
    81   41  103 1    
    82   41  104 1    
    83   41  105 1    
    84   42   43 am   BACKBONE|DICT|INTERRES
    85   42  106 1    
    86   43   44 2    
    87   43   45 1    
    88   45   46 1    
    89   45   49 1    
    90   45  107 1    
    91   46   47 1    
    92   46  108 1    
    93   46  109 1    
    94   47   48 1    
    95   48  110 1    
    96   48  111 1    
    97   49   50 am   BACKBONE|DICT|INTERRES
    98   49  112 1    
    99   50   51 2    
   100   50   52 1    
   101   52   53 1    
   102   52   54 1    
   103   52  113 1    
   104   53  114 1    
   105   53  115 1    
   106   53  116 1    
   107   54   55 am   BACKBONE|DICT|INTERRES
   108   54  117 1    
   109   55   56 2    
   110   55   57 1    
   111   57   58 1    
   112   57   59 1    
   113   57  118 1    
   114   58  119 1    
   115   58  120 1    
   116   58  121 1    
   117   59   60 am   BACKBONE|DICT|INTERRES
   118   59  122 1    
   119   60   61 2    
   120   60   62 1    
   121   62   63 1    
   122   62   64 1    
   123   62  123 1    
   124   63  124 1    
   125   63  125 1    
   126   63  126 1    
   127   64   65 am   BACKBONE|DICT|INTERRES
   128   64  127 1    
   129   65   66 2    
@<TRIPOS>SUBSTRUCTURE
     1 UNK         1 GROUP             0       ****    0 ROOT    
