@<TRIPOS>MOLECULE
3R134
127   129    1
SMALL
USER_CHARGES


@<TRIPOS>ATOM
      1 CA         29.6017  -50.6273  -52.7968 C.3       0 UNK        -0.1968 
      2 C          29.5762  -49.2289  -52.1961 C.2       0 UNK         0.4852 
      3 O          28.5609  -48.8299  -51.6248 O.2       0 UNK        -0.5359 
      4 N          30.6859  -48.4961  -52.3245 N.am      1 UNK        -0.4300 
      5 CA         30.8721  -47.1200  -51.8672 C.3       1 UNK         0.0863 
      6 C6         30.8861  -46.1599  -53.0870 C.3       11 UNK        -0.0953 
      7 S7         30.5921  -44.4061  -52.6794 S.3       11 UNK        -0.2369 
      8 C8         31.7786  -43.5525  -53.7704 C.3       11 UNK         0.0226 
      9 C9         31.6048  -43.9339  -55.2357 C.ar      11 UNK        -0.0699 
     10 C10        32.5108  -44.8092  -55.8418 C.ar      11 UNK        -0.0804 
     11 C11        32.3542  -45.1877  -57.1782 C.ar      11 UNK        -0.0871 
     12 C12        31.2985  -44.6525  -57.9221 C.ar      11 UNK        -0.1008 
     13 C13        30.4008  -43.7539  -57.3370 C.ar      11 UNK        -0.0735 
     14 C14        30.5521  -43.4059  -55.9899 C.ar      11 UNK        -0.0945 
     15 C15        29.3027  -43.1214  -58.1780 C.3       11 UNK         0.0169 
     16 S16        27.9688  -44.2944  -58.5788 S.3       11 UNK        -0.2669 
     17 C17        26.8093  -43.1621  -59.4371 C.3       11 UNK        -0.0850 
     18 CA         25.5429  -42.8092  -58.6068 C.3       10 UNK         0.0855 
     19 C          24.4285  -43.8888  -58.7567 C.2       10 UNK         0.5543 
     20 N          23.9725  -44.5481  -57.6986 N.am      10 UNK        -0.7343 
     21 O          23.9536  -44.1209  -59.8658 O.2       10 UNK        -0.5027 
     22 N          25.9049  -42.4668  -57.2259 N.am      10 UNK        -0.4495 
     23 C          25.1655  -41.7893  -56.3420 C.2       10 UNK         0.4903 
     24 O          24.1149  -41.2119  -56.6249 O.2       10 UNK        -0.4860 
     25 CA         25.6997  -41.7830  -54.8902 C.3       9 UNK         0.0227 
     26 CB         24.5861  -41.5261  -53.8529 C.3       9 UNK        -0.1964 
     27 N          26.4633  -42.9967  -54.5427 N.am      9 UNK        -0.4231 
     28 C          26.0219  -44.2613  -54.6212 C.2       9 UNK         0.5014 
     29 O          24.8723  -44.5727  -54.9478 O.2       9 UNK        -0.5270 
     30 CA         27.0354  -45.3695  -54.3256 C.3       8 UNK         0.0284 
     31 CB         27.0953  -45.6775  -52.8208 C.3       8 UNK        -0.1977 
     32 N          26.6000  -46.5511  -55.0625 N.am      8 UNK        -0.4342 
     33 C          27.3930  -47.4805  -55.5972 C.2       8 UNK         0.5039 
     34 O          28.6185  -47.5156  -55.4620 O.2       8 UNK        -0.5547 
     35 CA         26.7066  -48.5538  -56.4474 C.3       7 UNK         0.0281 
     36 CB         26.3908  -48.0196  -57.8581 C.3       7 UNK        -0.1963 
     37 N          27.6327  -49.6743  -56.5233 N.am      7 UNK        -0.4444 
     38 C          27.3685  -50.9345  -56.8746 C.2       7 UNK         0.5104 
     39 O          26.2531  -51.3248  -57.2229 O.2       7 UNK        -0.5100 
     40 CA         28.5401  -51.9371  -56.7853 C.3       6 UNK         0.0396 
     41 CB         28.4968  -52.9943  -57.9088 C.3       6 UNK        -0.1801 
     42 N          29.8689  -51.3085  -56.6956 N.am      6 UNK        -0.4747 
     43 C          30.5002  -50.5753  -57.6293 C.2       6 UNK         0.5012 
     44 O          30.0306  -50.3357  -58.7419 O.2       6 UNK        -0.5003 
     45 CA         31.8823  -49.9932  -57.2601 C.3       5 UNK         0.0782 
     46 C46        31.8212  -48.4477  -57.1660 C.3       11 UNK        -0.0868 
     47 S47        33.4769  -47.7239  -56.9137 S.3       11 UNK        -0.2515 
     48 C48        33.3419  -46.1514  -57.8242 C.3       11 UNK         0.0199 
     49 N          32.4323  -50.5750  -56.0299 N.am      5 UNK        -0.4607 
     50 C          33.0314  -51.7647  -55.9238 C.2       4 UNK         0.5031 
     51 O          33.1650  -52.5435  -56.8686 O.2       4 UNK        -0.5119 
     52 CA         33.5741  -52.1293  -54.5247 C.3       4 UNK         0.0263 
     53 CB         34.2181  -53.5281  -54.4873 C.3       4 UNK        -0.1967 
     54 N          34.5412  -51.1485  -54.0168 N.am      4 UNK        -0.4237 
     55 C          34.2475  -49.9283  -53.5498 C.2       3 UNK         0.4908 
     56 O          33.0965  -49.4763  -53.4970 O.2       3 UNK        -0.5102 
     57 CA         35.4330  -49.0704  -53.0812 C.3       3 UNK         0.0241 
     58 CB         36.3426  -48.6674  -54.2555 C.3       3 UNK        -0.1971 
     59 N          34.8982  -47.8679  -52.4564 N.am      3 UNK        -0.4139 
     60 C          35.3208  -47.2876  -51.3283 C.2       2 UNK         0.5016 
     61 O          36.3381  -47.6225  -50.7202 O.2       2 UNK        -0.5319 
     62 CA         34.4453  -46.1426  -50.7753 C.3       2 UNK         0.0286 
     63 CB         35.0771  -44.7783  -51.0960 C.3       2 UNK        -0.1963 
     64 N          33.0733  -46.1656  -51.2989 N.am      2 UNK        -0.4790 
     65 C          32.1575  -47.1028  -51.0155 C.2       1 UNK         0.5024 
     66 O          32.3244  -47.9636  -50.1486 O.2       1 UNK        -0.4888 
     67 H67        30.5704  -50.8629  -53.2365 H         1 UNK         0.0892 
     68 H68        29.3891  -51.3700  -52.0284 H         1 UNK         0.0892 
     69 H69        28.8431  -50.7125  -53.5743 H         1 UNK         0.0892 
     70 H70        31.5143  -48.9137  -52.7460 H         1 UNK         0.3107 
     71 H71        30.0541  -46.8349  -51.2026 H         1 UNK         0.0773 
     72 H72        31.8000  -46.2875  -53.6671 H         1 UNK         0.0680 
     73 H73        30.0829  -46.4321  -53.7684 H         1 UNK         0.0680 
     74 H74        32.7941  -43.7678  -53.4351 H         1 UNK         0.0650 
     75 H75        31.6455  -42.4756  -53.6584 H         1 UNK         0.0650 
     76 H76        33.3347  -45.2133  -55.2698 H         1 UNK         0.1397 
     77 H77        31.1775  -44.9230  -58.9622 H         1 UNK         0.1363 
     78 H78        29.8618  -42.7136  -55.5286 H         1 UNK         0.1355 
     79 H79        29.7361  -42.7426  -59.1050 H         1 UNK         0.0707 
     80 H80        28.8816  -42.2571  -57.6621 H         1 UNK         0.0707 
     81 H81        27.3335  -42.2389  -59.6884 H         1 UNK         0.1034 
     82 H82        26.5438  -43.5989  -60.4019 H         1 UNK         0.1034 
     83 H83        25.1157  -41.9071  -59.0489 H         1 UNK         0.0482 
     84 H84        24.3352  -44.3740  -56.7665 H         1 UNK         0.3460 
     85 H85        23.2418  -45.2288  -57.8279 H         1 UNK         0.3460 
     86 H86        26.7399  -42.9241  -56.8921 H         1 UNK         0.2989 
     87 H87        26.4035  -40.9515  -54.8318 H         1 UNK         0.0559 
     88 H88        24.1038  -40.5631  -54.0248 H         1 UNK         0.0848 
     89 H89        23.8090  -42.2900  -53.8960 H         1 UNK         0.0848 
     90 H90        24.9841  -41.5100  -52.8384 H         1 UNK         0.0848 
     91 H91        27.4188  -42.8426  -54.2502 H         1 UNK         0.3144 
     92 H92        28.0196  -45.0554  -54.6817 H         1 UNK         0.0727 
     93 H93        27.8114  -46.4712  -52.6128 H         1 UNK         0.0790 
     94 H94        26.1256  -45.9919  -52.4329 H         1 UNK         0.0790 
     95 H95        27.4104  -44.8020  -52.2521 H         1 UNK         0.0790 
     96 H96        25.6074  -46.5510  -55.2673 H         1 UNK         0.3215 
     97 H97        25.7898  -48.8764  -55.9494 H         1 UNK         0.0863 
     98 H98        25.7173  -47.1626  -57.8137 H         1 UNK         0.0808 
     99 H99        27.2957  -47.6946  -58.3740 H         1 UNK         0.0808 
    100 H100       25.9082  -48.7779  -58.4747 H         1 UNK         0.0808 
    101 H101       28.5671  -49.4258  -56.2188 H         1 UNK         0.3118 
    102 H102       28.4016  -52.4649  -55.8407 H         1 UNK         0.0546 
    103 H103       27.5749  -53.5754  -57.8637 H         1 UNK         0.0828 
    104 H104       29.3250  -53.6978  -57.8247 H         1 UNK         0.0828 
    105 H105       28.5414  -52.5385  -58.8981 H         1 UNK         0.0828 
    106 H106       30.3558  -51.4431  -55.8213 H         1 UNK         0.3005 
    107 H107       32.5498  -50.2541  -58.0849 H         1 UNK         0.1257 
    108 H108       31.1767  -48.1293  -56.3440 H         1 UNK         0.0775 
    109 H109       31.3888  -48.0246  -58.0750 H         1 UNK         0.0775 
    110 H110       34.3243  -45.6784  -57.8543 H         1 UNK         0.0840 
    111 H111       33.0703  -46.3597  -58.8603 H         1 UNK         0.0840 
    112 H112       32.4391  -49.9747  -55.2104 H         1 UNK         0.2987 
    113 H113       32.7178  -52.1464  -53.8473 H         1 UNK         0.0785 
    114 H114       33.5123  -54.2931  -54.8141 H         1 UNK         0.0798 
    115 H115       34.5334  -53.7935  -53.4780 H         1 UNK         0.0798 
    116 H116       35.0905  -53.5893  -55.1393 H         1 UNK         0.0798 
    117 H117       35.5119  -51.4253  -54.0552 H         1 UNK         0.3079 
    118 H118       36.0030  -49.6497  -52.3517 H         1 UNK         0.0794 
    119 H119       36.7758  -49.5404  -54.7444 H         1 UNK         0.0786 
    120 H120       37.1712  -48.0463  -53.9147 H         1 UNK         0.0786 
    121 H121       35.7968  -48.1044  -55.0132 H         1 UNK         0.0786 
    122 H122       34.0130  -47.5685  -52.8408 H         1 UNK         0.3032 
    123 H123       34.4018  -46.2605  -49.6901 H         1 UNK         0.1094 
    124 H124       34.5014  -43.9612  -50.6606 H         1 UNK         0.0794 
    125 H125       36.0877  -44.7122  -50.6901 H         1 UNK         0.0794 
    126 H126       35.1466  -44.6067  -52.1710 H         1 UNK         0.0794 
    127 H127       32.8305  -45.4606  -51.9807 H         1 UNK         0.3016 
@<TRIPOS>BOND
     1    1    2 1    
     2    1   67 1    
     3    1   68 1    
     4    1   69 1    
     5    2    3 2    
     6    2    4 am   BACKBONE|DICT|INTERRES
     7    4    5 1    
     8    4   70 1    
     9    5    6 1    
    10    5   65 1    
    11    5   71 1    
    12    6    7 1    
    13    6   72 1    
    14    6   73 1    
    15    7    8 1    
    16    8    9 1    
    17    8   74 1    
    18    8   75 1    
    19    9   10 ar   
    20    9   14 ar   
    21   10   11 ar   
    22   10   76 1    
    23   11   12 ar   
    24   11   48 1    
    25   12   13 ar   
    26   12   77 1    
    27   13   14 ar   
    28   13   15 1    
    29   14   78 1    
    30   15   16 1    
    31   15   79 1    
    32   15   80 1    
    33   16   17 1    
    34   17   18 1    
    35   17   81 1    
    36   17   82 1    
    37   18   19 1    
    38   18   22 1    
    39   18   83 1    
    40   19   20 am   BACKBONE|DICT|INTERRES
    41   19   21 2    
    42   20   84 1    
    43   20   85 1    
    44   22   23 am   BACKBONE|DICT|INTERRES
    45   22   86 1    
    46   23   24 2    
    47   23   25 1    
    48   25   26 1    
    49   25   27 1    
    50   25   87 1    
    51   26   88 1    
    52   26   89 1    
    53   26   90 1    
    54   27   28 am   BACKBONE|DICT|INTERRES
    55   27   91 1    
    56   28   29 2    
    57   28   30 1    
    58   30   31 1    
    59   30   32 1    
    60   30   92 1    
    61   31   93 1    
    62   31   94 1    
    63   31   95 1    
    64   32   33 am   BACKBONE|DICT|INTERRES
    65   32   96 1    
    66   33   34 2    
    67   33   35 1    
    68   35   36 1    
    69   35   37 1    
    70   35   97 1    
    71   36   98 1    
    72   36   99 1    
    73   36  100 1    
    74   37   38 am   BACKBONE|DICT|INTERRES
    75   37  101 1    
    76   38   39 2    
    77   38   40 1    
    78   40   41 1    
    79   40   42 1    
    80   40  102 1    
    81   41  103 1    
    82   41  104 1    
    83   41  105 1    
    84   42   43 am   BACKBONE|DICT|INTERRES
    85   42  106 1    
    86   43   44 2    
    87   43   45 1    
    88   45   46 1    
    89   45   49 1    
    90   45  107 1    
    91   46   47 1    
    92   46  108 1    
    93   46  109 1    
    94   47   48 1    
    95   48  110 1    
    96   48  111 1    
    97   49   50 am   BACKBONE|DICT|INTERRES
    98   49  112 1    
    99   50   51 2    
   100   50   52 1    
   101   52   53 1    
   102   52   54 1    
   103   52  113 1    
   104   53  114 1    
   105   53  115 1    
   106   53  116 1    
   107   54   55 am   BACKBONE|DICT|INTERRES
   108   54  117 1    
   109   55   56 2    
   110   55   57 1    
   111   57   58 1    
   112   57   59 1    
   113   57  118 1    
   114   58  119 1    
   115   58  120 1    
   116   58  121 1    
   117   59   60 am   BACKBONE|DICT|INTERRES
   118   59  122 1    
   119   60   61 2    
   120   60   62 1    
   121   62   63 1    
   122   62   64 1    
   123   62  123 1    
   124   63  124 1    
   125   63  125 1    
   126   63  126 1    
   127   64   65 am   BACKBONE|DICT|INTERRES
   128   64  127 1    
   129   65   66 2    
@<TRIPOS>SUBSTRUCTURE
     1 UNK         1 GROUP             0       ****    0 ROOT    
