@<TRIPOS>MOLECULE
3R134
127   129    1
SMALL
USER_CHARGES


@<TRIPOS>ATOM
      1 CA         37.0400  -46.3806  -57.7705 C.3       0 UNK        -0.1968 
      2 C          35.7459  -46.3383  -56.9711 C.2       0 UNK         0.4852 
      3 O          34.7832  -47.0128  -57.3342 O.2       0 UNK        -0.5359 
      4 N          35.7189  -45.5509  -55.8877 N.am      1 UNK        -0.4300 
      5 CA         34.5664  -45.3860  -54.9927 C.3       1 UNK         0.0863 
      6 C6         34.6968  -44.0972  -54.1440 C.3       11 UNK        -0.0953 
      7 S7         34.3040  -42.6013  -55.1125 S.3       11 UNK        -0.2369 
      8 C8         33.5356  -41.5173  -53.8611 C.3       11 UNK         0.0226 
      9 C9         32.1435  -41.9825  -53.4492 C.ar      11 UNK        -0.0699 
     10 C10        31.9780  -42.7839  -52.3158 C.ar      11 UNK        -0.0804 
     11 C11        30.7110  -43.2345  -51.9405 C.ar      11 UNK        -0.0871 
     12 C12        29.5928  -42.8296  -52.6696 C.ar      11 UNK        -0.1008 
     13 C13        29.7393  -42.0192  -53.7993 C.ar      11 UNK        -0.0735 
     14 C14        31.0180  -41.6029  -54.1889 C.ar      11 UNK        -0.0945 
     15 C15        28.5111  -41.6026  -54.5961 C.3       11 UNK         0.0169 
     16 S16        27.5862  -43.0437  -55.2158 S.3       11 UNK        -0.2669 
     17 C17        28.7817  -43.7601  -56.3952 C.3       11 UNK        -0.0850 
     18 CA         28.0802  -44.2609  -57.6843 C.3       10 UNK         0.0855 
     19 C          29.0933  -44.6229  -58.8099 C.2       10 UNK         0.5543 
     20 N          28.8648  -45.6593  -59.6075 N.am      10 UNK        -0.7343 
     21 O          30.0995  -43.9399  -58.9827 O.2       10 UNK        -0.5027 
     22 N          27.1484  -45.3590  -57.3847 N.am      10 UNK        -0.4495 
     23 C          25.8547  -45.4022  -57.7202 C.2       10 UNK         0.4903 
     24 O          25.2547  -44.4762  -58.2696 O.2       10 UNK        -0.4860 
     25 CA         25.1165  -46.7240  -57.4098 C.3       9 UNK         0.0227 
     26 CB         23.7578  -46.8322  -58.1330 C.3       9 UNK        -0.1964 
     27 N          25.9250  -47.9244  -57.6714 N.am      9 UNK        -0.4231 
     28 C          26.5744  -48.2358  -58.8059 C.2       9 UNK         0.5014 
     29 O          26.5471  -47.5389  -59.8212 O.2       9 UNK        -0.5270 
     30 CA         27.4331  -49.5112  -58.8142 C.3       8 UNK         0.0284 
     31 CB         28.8576  -49.2200  -59.3200 C.3       8 UNK        -0.1977 
     32 N          27.5213  -50.1321  -57.4902 N.am      8 UNK        -0.4342 
     33 C          27.2365  -51.4142  -57.2304 C.2       8 UNK         0.5039 
     34 O          26.8554  -52.2213  -58.0794 O.2       8 UNK        -0.5547 
     35 CA         27.4110  -51.8908  -55.7793 C.3       7 UNK         0.0281 
     36 CB         28.7911  -52.5443  -55.5985 C.3       7 UNK        -0.1963 
     37 N          27.2279  -50.8373  -54.7738 N.am      7 UNK        -0.4444 
     38 C          26.0449  -50.2671  -54.4930 C.2       7 UNK         0.5104 
     39 O          25.0153  -50.4932  -55.1281 O.2       7 UNK        -0.5100 
     40 CA         25.9846  -49.2785  -53.3209 C.3       6 UNK         0.0396 
     41 CB         25.7910  -50.0323  -51.9954 C.3       6 UNK        -0.1801 
     42 N          27.1928  -48.4611  -53.2386 N.am      6 UNK        -0.4747 
     43 C          27.2270  -47.1216  -53.3079 C.2       6 UNK         0.5012 
     44 O          26.2333  -46.4056  -53.4333 O.2       6 UNK        -0.5003 
     45 CA         28.6288  -46.4802  -53.2137 C.3       5 UNK         0.0782 
     46 C46        29.0045  -46.3827  -51.7066 C.3       11 UNK        -0.0868 
     47 S47        30.7281  -45.9116  -51.3373 S.3       11 UNK        -0.2515 
     48 C48        30.5641  -44.1892  -50.7700 C.3       11 UNK         0.0199 
     49 N          29.6360  -47.2035  -54.0043 N.am      5 UNK        -0.4607 
     50 C          29.5157  -47.6529  -55.2645 C.2       4 UNK         0.5031 
     51 O          28.5567  -47.4186  -56.0007 O.2       4 UNK        -0.5119 
     52 CA         30.6151  -48.5889  -55.7893 C.3       4 UNK         0.0263 
     53 CB         31.5737  -47.8108  -56.7011 C.3       4 UNK        -0.1967 
     54 N          31.3853  -49.2925  -54.7587 N.am      4 UNK        -0.4237 
     55 C          30.9159  -50.0434  -53.7517 C.2       3 UNK         0.4908 
     56 O          29.7135  -50.2173  -53.5349 O.2       3 UNK        -0.5102 
     57 CA         31.9460  -50.6888  -52.8025 C.3       3 UNK         0.0241 
     58 CB         32.2340  -52.1439  -53.2196 C.3       3 UNK        -0.1971 
     59 N          33.1901  -49.9193  -52.6118 N.am      3 UNK        -0.4139 
     60 C          34.1512  -49.6372  -53.5049 C.2       2 UNK         0.5016 
     61 O          34.1559  -50.0443  -54.6682 O.2       2 UNK        -0.5319 
     62 CA         35.2615  -48.6754  -53.0443 C.3       2 UNK         0.0286 
     63 CB         36.6300  -49.3759  -53.0526 C.3       2 UNK        -0.1963 
     64 N          35.3280  -47.4721  -53.8834 N.am      2 UNK        -0.4790 
     65 C          34.3172  -46.6099  -54.0825 C.2       1 UNK         0.5024 
     66 O          33.2087  -46.7396  -53.5635 O.2       1 UNK        -0.4888 
     67 H67        36.8582  -46.0551  -58.7944 H         1 UNK         0.0892 
     68 H68        37.8073  -45.7363  -57.3415 H         1 UNK         0.0892 
     69 H69        37.4290  -47.3980  -57.8003 H         1 UNK         0.0892 
     70 H70        36.5353  -45.0045  -55.6524 H         1 UNK         0.3107 
     71 H71        33.6722  -45.2926  -55.6129 H         1 UNK         0.0773 
     72 H72        34.0265  -44.1390  -53.2888 H         1 UNK         0.0680 
     73 H73        35.7000  -43.9999  -53.7256 H         1 UNK         0.0680 
     74 H74        34.1901  -41.4521  -52.9904 H         1 UNK         0.0650 
     75 H75        33.4742  -40.5069  -54.2679 H         1 UNK         0.0650 
     76 H76        32.8394  -43.0814  -51.7343 H         1 UNK         0.1397 
     77 H77        28.6081  -43.1679  -52.3767 H         1 UNK         0.1363 
     78 H78        31.1404  -40.9818  -55.0658 H         1 UNK         0.1355 
     79 H79        27.8561  -41.0131  -53.9532 H         1 UNK         0.0707 
     80 H80        28.7820  -40.9587  -55.4344 H         1 UNK         0.0707 
     81 H81        29.5281  -43.0011  -56.6360 H         1 UNK         0.1034 
     82 H82        29.3239  -44.5713  -55.9070 H         1 UNK         0.1034 
     83 H83        27.5220  -43.4156  -58.0900 H         1 UNK         0.0482 
     84 H84        28.0103  -46.1998  -59.5334 H         1 UNK         0.3460 
     85 H85        29.5266  -45.8672  -60.3373 H         1 UNK         0.3460 
     86 H86        27.5678  -46.1719  -56.9379 H         1 UNK         0.2989 
     87 H87        24.9223  -46.7155  -56.3360 H         1 UNK         0.0559 
     88 H88        23.1008  -46.0051  -57.8612 H         1 UNK         0.0848 
     89 H89        23.2400  -47.7544  -57.8696 H         1 UNK         0.0848 
     90 H90        23.8766  -46.8118  -59.2170 H         1 UNK         0.0848 
     91 H91        25.9981  -48.5712  -56.9002 H         1 UNK         0.3144 
     92 H92        26.9538  -50.1899  -59.5226 H         1 UNK         0.0727 
     93 H93        29.3563  -48.4741  -58.7020 H         1 UNK         0.0790 
     94 H94        28.8424  -48.8383  -60.3417 H         1 UNK         0.0790 
     95 H95        29.4714  -50.1208  -59.3225 H         1 UNK         0.0790 
     96 H96        27.8348  -49.5376  -56.7339 H         1 UNK         0.3215 
     97 H97        26.6519  -52.6549  -55.5968 H         1 UNK         0.0863 
     98 H98        28.9278  -52.9145  -54.5823 H         1 UNK         0.0808 
     99 H99        29.6009  -51.8474  -55.8155 H         1 UNK         0.0808 
    100 H100       28.9090  -53.3950  -56.2711 H         1 UNK         0.0808 
    101 H101       28.0468  -50.6076  -54.2148 H         1 UNK         0.3118 
    102 H102       25.1083  -48.6465  -53.4798 H         1 UNK         0.0546 
    103 H103       26.6366  -50.6841  -51.7720 H         1 UNK         0.0828 
    104 H104       24.8963  -50.6558  -52.0269 H         1 UNK         0.0828 
    105 H105       25.6732  -49.3401  -51.1617 H         1 UNK         0.0828 
    106 H106       28.0761  -48.9543  -53.1619 H         1 UNK         0.3005 
    107 H107       28.5619  -45.4733  -53.6282 H         1 UNK         0.1257 
    108 H108       28.3252  -45.6955  -51.1990 H         1 UNK         0.0775 
    109 H109       28.8586  -47.3479  -51.2164 H         1 UNK         0.0775 
    110 H110       29.6150  -44.0347  -50.2550 H         1 UNK         0.0840 
    111 H111       31.3417  -43.9894  -50.0312 H         1 UNK         0.0840 
    112 H112       30.4931  -47.4161  -53.5119 H         1 UNK         0.2987 
    113 H113       30.1247  -49.3559  -56.3899 H         1 UNK         0.0785 
    114 H114       31.0360  -47.2927  -57.4963 H         1 UNK         0.0798 
    115 H115       32.2981  -48.4723  -57.1768 H         1 UNK         0.0798 
    116 H116       32.1268  -47.0552  -56.1451 H         1 UNK         0.0798 
    117 H117       32.3959  -49.2650  -54.8595 H         1 UNK         0.3079 
    118 H118       31.4705  -50.7203  -51.8209 H         1 UNK         0.0794 
    119 H119       32.9095  -52.6318  -52.5170 H         1 UNK         0.0786 
    120 H120       32.6803  -52.2052  -54.2125 H         1 UNK         0.0786 
    121 H121       31.3139  -52.7295  -53.2442 H         1 UNK         0.0786 
    122 H122       33.2718  -49.4883  -51.7008 H         1 UNK         0.3032 
    123 H123       35.0491  -48.3517  -52.0229 H         1 UNK         0.1094 
    124 H124       36.9162  -49.6901  -54.0575 H         1 UNK         0.0794 
    125 H125       37.4142  -48.7236  -52.6678 H         1 UNK         0.0794 
    126 H126       36.6153  -50.2680  -52.4249 H         1 UNK         0.0794 
    127 H127       36.1948  -47.3076  -54.3733 H         1 UNK         0.3016 
@<TRIPOS>BOND
     1    1    2 1    
     2    1   67 1    
     3    1   68 1    
     4    1   69 1    
     5    2    3 2    
     6    2    4 am   BACKBONE|DICT|INTERRES
     7    4    5 1    
     8    4   70 1    
     9    5    6 1    
    10    5   65 1    
    11    5   71 1    
    12    6    7 1    
    13    6   72 1    
    14    6   73 1    
    15    7    8 1    
    16    8    9 1    
    17    8   74 1    
    18    8   75 1    
    19    9   10 ar   
    20    9   14 ar   
    21   10   11 ar   
    22   10   76 1    
    23   11   12 ar   
    24   11   48 1    
    25   12   13 ar   
    26   12   77 1    
    27   13   14 ar   
    28   13   15 1    
    29   14   78 1    
    30   15   16 1    
    31   15   79 1    
    32   15   80 1    
    33   16   17 1    
    34   17   18 1    
    35   17   81 1    
    36   17   82 1    
    37   18   19 1    
    38   18   22 1    
    39   18   83 1    
    40   19   20 am   BACKBONE|DICT|INTERRES
    41   19   21 2    
    42   20   84 1    
    43   20   85 1    
    44   22   23 am   BACKBONE|DICT|INTERRES
    45   22   86 1    
    46   23   24 2    
    47   23   25 1    
    48   25   26 1    
    49   25   27 1    
    50   25   87 1    
    51   26   88 1    
    52   26   89 1    
    53   26   90 1    
    54   27   28 am   BACKBONE|DICT|INTERRES
    55   27   91 1    
    56   28   29 2    
    57   28   30 1    
    58   30   31 1    
    59   30   32 1    
    60   30   92 1    
    61   31   93 1    
    62   31   94 1    
    63   31   95 1    
    64   32   33 am   BACKBONE|DICT|INTERRES
    65   32   96 1    
    66   33   34 2    
    67   33   35 1    
    68   35   36 1    
    69   35   37 1    
    70   35   97 1    
    71   36   98 1    
    72   36   99 1    
    73   36  100 1    
    74   37   38 am   BACKBONE|DICT|INTERRES
    75   37  101 1    
    76   38   39 2    
    77   38   40 1    
    78   40   41 1    
    79   40   42 1    
    80   40  102 1    
    81   41  103 1    
    82   41  104 1    
    83   41  105 1    
    84   42   43 am   BACKBONE|DICT|INTERRES
    85   42  106 1    
    86   43   44 2    
    87   43   45 1    
    88   45   46 1    
    89   45   49 1    
    90   45  107 1    
    91   46   47 1    
    92   46  108 1    
    93   46  109 1    
    94   47   48 1    
    95   48  110 1    
    96   48  111 1    
    97   49   50 am   BACKBONE|DICT|INTERRES
    98   49  112 1    
    99   50   51 2    
   100   50   52 1    
   101   52   53 1    
   102   52   54 1    
   103   52  113 1    
   104   53  114 1    
   105   53  115 1    
   106   53  116 1    
   107   54   55 am   BACKBONE|DICT|INTERRES
   108   54  117 1    
   109   55   56 2    
   110   55   57 1    
   111   57   58 1    
   112   57   59 1    
   113   57  118 1    
   114   58  119 1    
   115   58  120 1    
   116   58  121 1    
   117   59   60 am   BACKBONE|DICT|INTERRES
   118   59  122 1    
   119   60   61 2    
   120   60   62 1    
   121   62   63 1    
   122   62   64 1    
   123   62  123 1    
   124   63  124 1    
   125   63  125 1    
   126   63  126 1    
   127   64   65 am   BACKBONE|DICT|INTERRES
   128   64  127 1    
   129   65   66 2    
@<TRIPOS>SUBSTRUCTURE
     1 UNK         1 GROUP             0       ****    0 ROOT    
