@<TRIPOS>MOLECULE
3R134
127   129    1
SMALL
USER_CHARGES


@<TRIPOS>ATOM
      1 CA         34.5646  -46.4712  -50.0992 C.3       0 UNK        -0.1968 
      2 C          34.3156  -46.8639  -51.5477 C.2       0 UNK         0.4852 
      3 O          33.5965  -47.8286  -51.8010 O.2       0 UNK        -0.5359 
      4 N          34.8972  -46.1191  -52.4972 N.am      1 UNK        -0.4300 
      5 CA         34.7885  -46.3347  -53.9447 C.3       1 UNK         0.0863 
      6 C6         33.3229  -46.2114  -54.4631 C.3       11 UNK        -0.0953 
      7 S7         33.2320  -45.3712  -56.0791 S.3       11 UNK        -0.2369 
      8 C8         33.1884  -43.6191  -55.5769 C.3       11 UNK         0.0226 
      9 C9         31.8495  -43.2369  -54.9643 C.ar      11 UNK        -0.0699 
     10 C10        31.6825  -43.2222  -53.5772 C.ar      11 UNK        -0.0804 
     11 C11        30.4418  -42.9140  -53.0150 C.ar      11 UNK        -0.0871 
     12 C12        29.3682  -42.5904  -53.8512 C.ar      11 UNK        -0.1008 
     13 C13        29.5266  -42.5741  -55.2414 C.ar      11 UNK        -0.0735 
     14 C14        30.7749  -42.8953  -55.7886 C.ar      11 UNK        -0.0945 
     15 C15        28.3536  -42.1686  -56.1308 C.3       11 UNK         0.0169 
     16 S16        28.2277  -43.1624  -57.6566 S.3       11 UNK        -0.2669 
     17 C17        26.7430  -42.4397  -58.4386 C.3       11 UNK        -0.0850 
     18 CA         25.5317  -43.4180  -58.4423 C.3       10 UNK         0.0855 
     19 C          24.2352  -42.7650  -59.0108 C.2       10 UNK         0.5543 
     20 N          23.3655  -43.5055  -59.6873 N.am      10 UNK        -0.7343 
     21 O          23.9945  -41.5767  -58.8102 O.2       10 UNK        -0.5027 
     22 N          25.8628  -44.7380  -59.0097 N.am      10 UNK        -0.4495 
     23 C          26.2767  -44.9969  -60.2555 C.2       10 UNK         0.4903 
     24 O          26.3714  -44.1456  -61.1414 O.2       10 UNK        -0.4860 
     25 CA         26.6724  -46.4598  -60.5427 C.3       9 UNK         0.0227 
     26 CB         27.0554  -46.6913  -62.0169 C.3       9 UNK        -0.1964 
     27 N          27.7757  -46.9145  -59.6879 N.am      9 UNK        -0.4231 
     28 C          27.6664  -47.2646  -58.3995 C.2       9 UNK         0.5014 
     29 O          26.6090  -47.2042  -57.7649 O.2       9 UNK        -0.5270 
     30 CA         28.9574  -47.7378  -57.7045 C.3       8 UNK         0.0284 
     31 CB         29.6860  -46.5550  -57.0452 C.3       8 UNK        -0.1977 
     32 N          28.6825  -48.7472  -56.6821 N.am      8 UNK        -0.4342 
     33 C          28.1639  -49.9618  -56.9116 C.2       8 UNK         0.5039 
     34 O          27.9788  -50.4293  -58.0366 O.2       8 UNK        -0.5547 
     35 CA         27.7771  -50.7960  -55.6801 C.3       7 UNK         0.0281 
     36 CB         28.9416  -51.7010  -55.2463 C.3       7 UNK        -0.1963 
     37 N          27.3587  -49.9492  -54.5588 N.am      7 UNK        -0.4444 
     38 C          26.1203  -49.4562  -54.4077 C.2       7 UNK         0.5104 
     39 O          25.1834  -49.7218  -55.1613 O.2       7 UNK        -0.5100 
     40 CA         25.8650  -48.5307  -53.2027 C.3       6 UNK         0.0396 
     41 CB         25.1954  -49.3151  -52.0627 C.3       6 UNK        -0.1801 
     42 N          27.0817  -47.8951  -52.6915 N.am      6 UNK        -0.4747 
     43 C          27.6772  -46.8244  -53.2396 C.2       6 UNK         0.5012 
     44 O          27.2290  -46.2149  -54.2088 O.2       6 UNK        -0.5003 
     45 CA         29.0133  -46.3768  -52.6066 C.3       5 UNK         0.0782 
     46 C46        28.7510  -45.3100  -51.5154 C.3       11 UNK        -0.0868 
     47 S47        30.2941  -44.6189  -50.8297 S.3       11 UNK        -0.2515 
     48 C48        30.2725  -42.9258  -51.5026 C.3       11 UNK         0.0199 
     49 N          29.7905  -47.5124  -52.0864 N.am      5 UNK        -0.4607 
     50 C          30.2524  -48.5255  -52.8273 C.2       4 UNK         0.5031 
     51 O          30.0897  -48.6134  -54.0478 O.2       4 UNK        -0.5119 
     52 CA         30.9233  -49.6767  -52.0748 C.3       4 UNK         0.0263 
     53 CB         29.8645  -50.6472  -51.5146 C.3       4 UNK        -0.1967 
     54 N          31.8064  -50.3657  -53.0092 N.am      4 UNK        -0.4237 
     55 C          32.7956  -51.2048  -52.6815 C.2       3 UNK         0.4908 
     56 O          33.0606  -51.5488  -51.5291 O.2       3 UNK        -0.5102 
     57 CA         33.6454  -51.7362  -53.8397 C.3       3 UNK         0.0241 
     58 CB         32.8476  -52.7142  -54.7255 C.3       3 UNK        -0.1971 
     59 N          34.1730  -50.6224  -54.6271 N.am      3 UNK        -0.4139 
     60 C          35.2436  -50.6821  -55.4287 C.2       2 UNK         0.5016 
     61 O          35.9005  -51.7070  -55.6179 O.2       2 UNK        -0.5319 
     62 CA         35.6568  -49.3875  -56.1556 C.3       2 UNK         0.0286 
     63 CB         35.2363  -49.4470  -57.6335 C.3       2 UNK        -0.1963 
     64 N          35.1070  -48.1660  -55.5580 N.am      2 UNK        -0.4790 
     65 C          35.5106  -47.6258  -54.3998 C.2       1 UNK         0.5024 
     66 O          36.4281  -48.0945  -53.7216 O.2       1 UNK        -0.4888 
     67 H67        35.0143  -47.3031  -49.5578 H         1 UNK         0.0892 
     68 H68        35.2302  -45.6123  -50.0168 H         1 UNK         0.0892 
     69 H69        33.6218  -46.2180  -49.6147 H         1 UNK         0.0892 
     70 H70        35.5106  -45.3653  -52.2210 H         1 UNK         0.3107 
     71 H71        35.3746  -45.5211  -54.3745 H         1 UNK         0.0773 
     72 H72        32.8292  -47.1826  -54.5328 H         1 UNK         0.0680 
     73 H73        32.7099  -45.6598  -53.7534 H         1 UNK         0.0680 
     74 H74        33.3784  -42.9990  -56.4542 H         1 UNK         0.0650 
     75 H75        34.0027  -43.4166  -54.8797 H         1 UNK         0.0650 
     76 H76        32.5129  -43.4723  -52.9308 H         1 UNK         0.1397 
     77 H77        28.4088  -42.3412  -53.4185 H         1 UNK         0.1363 
     78 H78        30.9134  -42.8883  -56.8609 H         1 UNK         0.1355 
     79 H79        27.4122  -42.2597  -55.5813 H         1 UNK         0.0707 
     80 H80        28.4663  -41.1138  -56.3962 H         1 UNK         0.0707 
     81 H81        26.4837  -41.5128  -57.9239 H         1 UNK         0.1034 
     82 H82        27.0005  -42.1478  -59.4581 H         1 UNK         0.1034 
     83 H83        25.2913  -43.6205  -57.3980 H         1 UNK         0.0482 
     84 H84        23.5489  -44.4829  -59.8483 H         1 UNK         0.3460 
     85 H85        22.5236  -43.0811  -60.0438 H         1 UNK         0.3460 
     86 H86        25.8647  -45.5154  -58.3547 H         1 UNK         0.2989 
     87 H87        25.7954  -47.0758  -60.3324 H         1 UNK         0.0559 
     88 H88        27.9343  -46.1122  -62.3034 H         1 UNK         0.0848 
     89 H89        26.2419  -46.3990  -62.6824 H         1 UNK         0.0848 
     90 H90        27.2671  -47.7427  -62.2125 H         1 UNK         0.0848 
     91 H91        28.6883  -46.9485  -60.1193 H         1 UNK         0.3144 
     92 H92        29.6171  -48.1890  -58.4484 H         1 UNK         0.0727 
     93 H93        29.9901  -45.8160  -57.7875 H         1 UNK         0.0790 
     94 H94        30.5868  -46.8812  -56.5248 H         1 UNK         0.0790 
     95 H95        29.0511  -46.0426  -56.3206 H         1 UNK         0.0790 
     96 H96        28.8544  -48.4742  -55.7219 H         1 UNK         0.3215 
     97 H97        26.9438  -51.4410  -55.9681 H         1 UNK         0.0863 
     98 H98        29.8177  -51.1230  -54.9571 H         1 UNK         0.0808 
     99 H99        29.2440  -52.3606  -56.0609 H         1 UNK         0.0808 
    100 H100       28.6611  -52.3355  -54.4056 H         1 UNK         0.0808 
    101 H101       28.0831  -49.6374  -53.9280 H         1 UNK         0.3118 
    102 H102       25.1735  -47.7503  -53.5282 H         1 UNK         0.0546 
    103 H103       25.8372  -50.1133  -51.6877 H         1 UNK         0.0828 
    104 H104       24.2664  -49.7769  -52.4005 H         1 UNK         0.0828 
    105 H105       24.9439  -48.6633  -51.2258 H         1 UNK         0.0828 
    106 H106       27.5094  -48.3155  -51.8792 H         1 UNK         0.3005 
    107 H107       29.6007  -45.9154  -53.4052 H         1 UNK         0.1257 
    108 H108       28.1788  -45.7386  -50.6903 H         1 UNK         0.0775 
    109 H109       28.1393  -44.4970  -51.9110 H         1 UNK         0.0775 
    110 H110       29.3478  -42.4276  -51.2067 H         1 UNK         0.0840 
    111 H111       31.0828  -42.3553  -51.0463 H         1 UNK         0.0840 
    112 H112       29.9820  -47.4992  -51.0949 H         1 UNK         0.2987 
    113 H113       31.5152  -49.2682  -51.2538 H         1 UNK         0.0785 
    114 H114       29.1872  -50.1387  -50.8278 H         1 UNK         0.0798 
    115 H115       30.3269  -51.4625  -50.9581 H         1 UNK         0.0798 
    116 H116       29.2592  -51.0890  -52.3059 H         1 UNK         0.0798 
    117 H117       31.6404  -50.1175  -53.9762 H         1 UNK         0.3079 
    118 H118       34.4863  -52.2770  -53.3994 H         1 UNK         0.0794 
    119 H119       32.3815  -53.4962  -54.1246 H         1 UNK         0.0786 
    120 H120       33.4943  -53.2089  -55.4503 H         1 UNK         0.0786 
    121 H121       32.0561  -52.2093  -55.2793 H         1 UNK         0.0786 
    122 H122       33.7473  -49.7195  -54.4731 H         1 UNK         0.3032 
    123 H123       36.7470  -49.3296  -56.1113 H         1 UNK         0.1094 
    124 H124       35.6543  -50.3276  -58.1238 H         1 UNK         0.0794 
    125 H125       34.1522  -49.4969  -57.7438 H         1 UNK         0.0794 
    126 H126       35.5910  -48.5749  -58.1832 H         1 UNK         0.0794 
    127 H127       34.3747  -47.6940  -56.0728 H         1 UNK         0.3016 
@<TRIPOS>BOND
     1    1    2 1    
     2    1   67 1    
     3    1   68 1    
     4    1   69 1    
     5    2    3 2    
     6    2    4 am   BACKBONE|DICT|INTERRES
     7    4    5 1    
     8    4   70 1    
     9    5    6 1    
    10    5   65 1    
    11    5   71 1    
    12    6    7 1    
    13    6   72 1    
    14    6   73 1    
    15    7    8 1    
    16    8    9 1    
    17    8   74 1    
    18    8   75 1    
    19    9   10 ar   
    20    9   14 ar   
    21   10   11 ar   
    22   10   76 1    
    23   11   12 ar   
    24   11   48 1    
    25   12   13 ar   
    26   12   77 1    
    27   13   14 ar   
    28   13   15 1    
    29   14   78 1    
    30   15   16 1    
    31   15   79 1    
    32   15   80 1    
    33   16   17 1    
    34   17   18 1    
    35   17   81 1    
    36   17   82 1    
    37   18   19 1    
    38   18   22 1    
    39   18   83 1    
    40   19   20 am   BACKBONE|DICT|INTERRES
    41   19   21 2    
    42   20   84 1    
    43   20   85 1    
    44   22   23 am   BACKBONE|DICT|INTERRES
    45   22   86 1    
    46   23   24 2    
    47   23   25 1    
    48   25   26 1    
    49   25   27 1    
    50   25   87 1    
    51   26   88 1    
    52   26   89 1    
    53   26   90 1    
    54   27   28 am   BACKBONE|DICT|INTERRES
    55   27   91 1    
    56   28   29 2    
    57   28   30 1    
    58   30   31 1    
    59   30   32 1    
    60   30   92 1    
    61   31   93 1    
    62   31   94 1    
    63   31   95 1    
    64   32   33 am   BACKBONE|DICT|INTERRES
    65   32   96 1    
    66   33   34 2    
    67   33   35 1    
    68   35   36 1    
    69   35   37 1    
    70   35   97 1    
    71   36   98 1    
    72   36   99 1    
    73   36  100 1    
    74   37   38 am   BACKBONE|DICT|INTERRES
    75   37  101 1    
    76   38   39 2    
    77   38   40 1    
    78   40   41 1    
    79   40   42 1    
    80   40  102 1    
    81   41  103 1    
    82   41  104 1    
    83   41  105 1    
    84   42   43 am   BACKBONE|DICT|INTERRES
    85   42  106 1    
    86   43   44 2    
    87   43   45 1    
    88   45   46 1    
    89   45   49 1    
    90   45  107 1    
    91   46   47 1    
    92   46  108 1    
    93   46  109 1    
    94   47   48 1    
    95   48  110 1    
    96   48  111 1    
    97   49   50 am   BACKBONE|DICT|INTERRES
    98   49  112 1    
    99   50   51 2    
   100   50   52 1    
   101   52   53 1    
   102   52   54 1    
   103   52  113 1    
   104   53  114 1    
   105   53  115 1    
   106   53  116 1    
   107   54   55 am   BACKBONE|DICT|INTERRES
   108   54  117 1    
   109   55   56 2    
   110   55   57 1    
   111   57   58 1    
   112   57   59 1    
   113   57  118 1    
   114   58  119 1    
   115   58  120 1    
   116   58  121 1    
   117   59   60 am   BACKBONE|DICT|INTERRES
   118   59  122 1    
   119   60   61 2    
   120   60   62 1    
   121   62   63 1    
   122   62   64 1    
   123   62  123 1    
   124   63  124 1    
   125   63  125 1    
   126   63  126 1    
   127   64   65 am   BACKBONE|DICT|INTERRES
   128   64  127 1    
   129   65   66 2    
@<TRIPOS>SUBSTRUCTURE
     1 UNK         1 GROUP             0       ****    0 ROOT    
