@<TRIPOS>MOLECULE
3R134
127   129    1
SMALL
USER_CHARGES


@<TRIPOS>ATOM
      1 CA         36.0603  -47.6987  -54.4730 C.3       0 UNK        -0.1968 
      2 C          34.7508  -47.0270  -54.0902 C.2       0 UNK         0.4852 
      3 O          33.6886  -47.6361  -54.2478 O.2       0 UNK        -0.5359 
      4 N          34.8287  -45.7882  -53.5850 N.am      1 UNK        -0.4300 
      5 CA         33.7088  -44.9319  -53.1786 C.3       1 UNK         0.0863 
      6 C6         34.1924  -43.5616  -52.6344 C.3       11 UNK        -0.0953 
      7 S7         35.2871  -42.6757  -53.7966 S.3       11 UNK        -0.2369 
      8 C8         34.1452  -41.4772  -54.5565 C.3       11 UNK         0.0226 
      9 C9         33.0106  -42.1647  -55.3016 C.ar      11 UNK        -0.0699 
     10 C10        33.2839  -42.9482  -56.4290 C.ar      11 UNK        -0.0804 
     11 C11        32.2512  -43.6137  -57.0945 C.ar      11 UNK        -0.0871 
     12 C12        30.9361  -43.4453  -56.6558 C.ar      11 UNK        -0.1008 
     13 C13        30.6554  -42.7065  -55.5075 C.ar      11 UNK        -0.0735 
     14 C14        31.6942  -42.0534  -54.8390 C.ar      11 UNK        -0.0945 
     15 C15        29.2412  -42.7062  -54.9532 C.3       11 UNK         0.0169 
     16 S16        29.0054  -44.2010  -53.9463 S.3       11 UNK        -0.2669 
     17 C17        27.2174  -44.1799  -53.6009 C.3       11 UNK        -0.0850 
     18 CA         26.5177  -45.4691  -54.1227 C.3       10 UNK         0.0855 
     19 C          25.0754  -45.6562  -53.5656 C.2       10 UNK         0.5543 
     20 N          24.4088  -46.7494  -53.9101 N.am      10 UNK        -0.7343 
     21 O          24.5569  -44.8250  -52.8231 O.2       10 UNK        -0.5027 
     22 N          26.6003  -45.6167  -55.5892 N.am      10 UNK        -0.4495 
     23 C          25.9590  -44.8403  -56.4761 C.2       10 UNK         0.4903 
     24 O          25.2218  -43.9069  -56.1564 O.2       10 UNK        -0.4860 
     25 CA         26.1603  -45.1089  -57.9749 C.3       9 UNK         0.0227 
     26 CB         27.1279  -44.0783  -58.5859 C.3       9 UNK        -0.1964 
     27 N          26.6170  -46.4652  -58.2913 N.am      9 UNK        -0.4231 
     28 C          26.3499  -47.0898  -59.4465 C.2       9 UNK         0.5014 
     29 O          25.6278  -46.6259  -60.3308 O.2       9 UNK        -0.5270 
     30 CA         27.0214  -48.4512  -59.6749 C.3       8 UNK         0.0284 
     31 CB         28.4980  -48.2648  -60.0646 C.3       8 UNK        -0.1977 
     32 N          26.9227  -49.3306  -58.5103 N.am      8 UNK        -0.4342 
     33 C          25.8372  -50.0470  -58.1884 C.2       8 UNK         0.5039 
     34 O          24.7834  -50.0156  -58.8252 O.2       8 UNK        -0.5547 
     35 CA         25.9487  -50.9885  -56.9754 C.3       7 UNK         0.0281 
     36 CB         26.1933  -52.4332  -57.4419 C.3       7 UNK        -0.1963 
     37 N          27.0104  -50.6036  -56.0420 N.am      7 UNK        -0.4444 
     38 C          26.8824  -49.6395  -55.1222 C.2       7 UNK         0.5104 
     39 O          25.8600  -48.9748  -54.9572 O.2       7 UNK        -0.5100 
     40 CA         28.1317  -49.3334  -54.2787 C.3       6 UNK         0.0396 
     41 CB         28.3732  -50.4519  -53.2525 C.3       6 UNK        -0.1801 
     42 N          29.3488  -49.1163  -55.0710 N.am      6 UNK        -0.4747 
     43 C          29.4817  -48.2641  -56.1011 C.2       6 UNK         0.5012 
     44 O          28.5485  -47.5845  -56.5360 O.2       6 UNK        -0.5003 
     45 CA         30.8738  -48.1191  -56.7593 C.3       5 UNK         0.0782 
     46 C46        31.2753  -46.6282  -56.7929 C.3       11 UNK        -0.0868 
     47 S47        32.8489  -46.2692  -57.6450 S.3       11 UNK        -0.2515 
     48 C48        32.5516  -44.5666  -58.2444 C.3       11 UNK         0.0199 
     49 N          31.8954  -48.9525  -56.1213 N.am      5 UNK        -0.4607 
     50 C          32.0764  -50.2576  -56.3664 C.2       4 UNK         0.5031 
     51 O          31.3923  -50.9060  -57.1574 O.2       4 UNK        -0.5119 
     52 CA         33.1767  -50.9607  -55.5594 C.3       4 UNK         0.0263 
     53 CB         34.5457  -50.7618  -56.2286 C.3       4 UNK        -0.1967 
     54 N          33.2203  -50.4510  -54.1884 N.am      4 UNK        -0.4237 
     55 C          32.4077  -50.8559  -53.2043 C.2       3 UNK         0.4908 
     56 O          31.5893  -51.7674  -53.3205 O.2       3 UNK        -0.5102 
     57 CA         32.4852  -50.0755  -51.8893 C.3       3 UNK         0.0241 
     58 CB         33.9189  -50.0107  -51.3301 C.3       3 UNK        -0.1971 
     59 N          31.9750  -48.7223  -52.1050 N.am      3 UNK        -0.4139 
     60 C          30.9785  -48.1532  -51.4135 C.2       2 UNK         0.5016 
     61 O          30.3792  -48.7165  -50.4960 O.2       2 UNK        -0.5319 
     62 CA         30.5570  -46.7250  -51.8229 C.3       2 UNK         0.0286 
     63 CB         30.0373  -45.8967  -50.6286 C.3       2 UNK        -0.1963 
     64 N          31.5812  -45.9769  -52.5659 N.am      2 UNK        -0.4790 
     65 C          32.8088  -45.6378  -52.1457 C.2       1 UNK         0.5024 
     66 O          33.2550  -45.8910  -51.0249 O.2       1 UNK        -0.4888 
     67 H67        36.1125  -48.7008  -54.0489 H         1 UNK         0.0892 
     68 H68        36.9241  -47.1376  -54.1168 H         1 UNK         0.0892 
     69 H69        36.1331  -47.7800  -55.5569 H         1 UNK         0.0892 
     70 H70        35.7374  -45.3605  -53.4807 H         1 UNK         0.3107 
     71 H71        33.1170  -44.7490  -54.0776 H         1 UNK         0.0773 
     72 H72        34.7468  -43.6943  -51.7033 H         1 UNK         0.0680 
     73 H73        33.3404  -42.9249  -52.3885 H         1 UNK         0.0680 
     74 H74        34.7032  -40.8513  -55.2541 H         1 UNK         0.0650 
     75 H75        33.7604  -40.8099  -53.7838 H         1 UNK         0.0650 
     76 H76        34.3059  -43.0716  -56.7608 H         1 UNK         0.1397 
     77 H77        30.1284  -43.9490  -57.1631 H         1 UNK         0.1363 
     78 H78        31.4811  -41.4864  -53.9432 H         1 UNK         0.1355 
     79 H79        28.5156  -42.6904  -55.7683 H         1 UNK         0.0707 
     80 H80        29.0605  -41.8180  -54.3461 H         1 UNK         0.0707 
     81 H81        26.7557  -43.2858  -54.0221 H         1 UNK         0.1034 
     82 H82        27.1029  -44.0950  -52.5187 H         1 UNK         0.1034 
     83 H83        27.0763  -46.3084  -53.7104 H         1 UNK         0.0482 
     84 H84        23.4735  -46.8892  -53.5640 H         1 UNK         0.3460 
     85 H85        24.8627  -47.4789  -54.4547 H         1 UNK         0.3460 
     86 H86        27.2157  -46.3538  -55.9128 H         1 UNK         0.2989 
     87 H87        25.1780  -44.9602  -58.4288 H         1 UNK         0.0559 
     88 H88        27.1383  -44.1393  -59.6742 H         1 UNK         0.0848 
     89 H89        28.1466  -44.2323  -58.2337 H         1 UNK         0.0848 
     90 H90        26.8396  -43.0592  -58.3242 H         1 UNK         0.0848 
     91 H91        27.2409  -46.9179  -57.6278 H         1 UNK         0.3144 
     92 H92        26.5168  -48.9365  -60.5136 H         1 UNK         0.0727 
     93 H93        28.9931  -49.2224  -60.2268 H         1 UNK         0.0790 
     94 H94        29.0556  -47.7185  -59.3044 H         1 UNK         0.0790 
     95 H95        28.5821  -47.6970  -60.9923 H         1 UNK         0.0790 
     96 H96        27.7250  -49.3812  -57.9011 H         1 UNK         0.3215 
     97 H97        24.9906  -50.9595  -56.4509 H         1 UNK         0.0863 
     98 H98        26.2067  -53.1255  -56.5999 H         1 UNK         0.0808 
     99 H99        27.1397  -52.5324  -57.9753 H         1 UNK         0.0808 
    100 H100       25.4030  -52.7638  -58.1175 H         1 UNK         0.0808 
    101 H101       27.8902  -51.0953  -56.1107 H         1 UNK         0.3118 
    102 H102       27.9397  -48.4136  -53.7263 H         1 UNK         0.0546 
    103 H103       28.6358  -51.3960  -53.7313 H         1 UNK         0.0828 
    104 H104       27.4815  -50.6288  -52.6494 H         1 UNK         0.0828 
    105 H105       29.1776  -50.1980  -52.5641 H         1 UNK         0.0828 
    106 H106       30.1624  -49.6499  -54.8014 H         1 UNK         0.3005 
    107 H107       30.7636  -48.4546  -57.7925 H         1 UNK         0.1257 
    108 H108       30.4946  -46.0766  -57.3155 H         1 UNK         0.0775 
    109 H109       31.3330  -46.2178  -55.7829 H         1 UNK         0.0775 
    110 H110       33.4300  -44.2246  -58.7938 H         1 UNK         0.0840 
    111 H111       31.7276  -44.5707  -58.9598 H         1 UNK         0.0840 
    112 H112       32.5257  -48.4739  -55.4825 H         1 UNK         0.2987 
    113 H113       32.9568  -52.0305  -55.5391 H         1 UNK         0.0785 
    114 H114       35.3404  -51.2458  -55.6607 H         1 UNK         0.0798 
    115 H115       34.5534  -51.1940  -57.2302 H         1 UNK         0.0798 
    116 H116       34.7981  -49.7060  -56.3301 H         1 UNK         0.0798 
    117 H117       33.7884  -49.6264  -54.0348 H         1 UNK         0.3079 
    118 H118       31.8667  -50.6098  -51.1648 H         1 UNK         0.0794 
    119 H119       34.5867  -49.4275  -51.9642 H         1 UNK         0.0786 
    120 H120       34.3463  -51.0093  -51.2298 H         1 UNK         0.0786 
    121 H121       33.9282  -49.5542  -50.3400 H         1 UNK         0.0786 
    122 H122       32.4195  -48.1834  -52.8428 H         1 UNK         0.3032 
    123 H123       29.7224  -46.8578  -52.5133 H         1 UNK         0.1094 
    124 H124       29.7264  -44.9003  -50.9424 H         1 UNK         0.0794 
    125 H125       29.1708  -46.3724  -50.1679 H         1 UNK         0.0794 
    126 H126       30.7960  -45.7837  -49.8538 H         1 UNK         0.0794 
    127 H127       31.3136  -45.7043  -53.5019 H         1 UNK         0.3016 
@<TRIPOS>BOND
     1    1    2 1    
     2    1   67 1    
     3    1   68 1    
     4    1   69 1    
     5    2    3 2    
     6    2    4 am   BACKBONE|DICT|INTERRES
     7    4    5 1    
     8    4   70 1    
     9    5    6 1    
    10    5   65 1    
    11    5   71 1    
    12    6    7 1    
    13    6   72 1    
    14    6   73 1    
    15    7    8 1    
    16    8    9 1    
    17    8   74 1    
    18    8   75 1    
    19    9   10 ar   
    20    9   14 ar   
    21   10   11 ar   
    22   10   76 1    
    23   11   12 ar   
    24   11   48 1    
    25   12   13 ar   
    26   12   77 1    
    27   13   14 ar   
    28   13   15 1    
    29   14   78 1    
    30   15   16 1    
    31   15   79 1    
    32   15   80 1    
    33   16   17 1    
    34   17   18 1    
    35   17   81 1    
    36   17   82 1    
    37   18   19 1    
    38   18   22 1    
    39   18   83 1    
    40   19   20 am   BACKBONE|DICT|INTERRES
    41   19   21 2    
    42   20   84 1    
    43   20   85 1    
    44   22   23 am   BACKBONE|DICT|INTERRES
    45   22   86 1    
    46   23   24 2    
    47   23   25 1    
    48   25   26 1    
    49   25   27 1    
    50   25   87 1    
    51   26   88 1    
    52   26   89 1    
    53   26   90 1    
    54   27   28 am   BACKBONE|DICT|INTERRES
    55   27   91 1    
    56   28   29 2    
    57   28   30 1    
    58   30   31 1    
    59   30   32 1    
    60   30   92 1    
    61   31   93 1    
    62   31   94 1    
    63   31   95 1    
    64   32   33 am   BACKBONE|DICT|INTERRES
    65   32   96 1    
    66   33   34 2    
    67   33   35 1    
    68   35   36 1    
    69   35   37 1    
    70   35   97 1    
    71   36   98 1    
    72   36   99 1    
    73   36  100 1    
    74   37   38 am   BACKBONE|DICT|INTERRES
    75   37  101 1    
    76   38   39 2    
    77   38   40 1    
    78   40   41 1    
    79   40   42 1    
    80   40  102 1    
    81   41  103 1    
    82   41  104 1    
    83   41  105 1    
    84   42   43 am   BACKBONE|DICT|INTERRES
    85   42  106 1    
    86   43   44 2    
    87   43   45 1    
    88   45   46 1    
    89   45   49 1    
    90   45  107 1    
    91   46   47 1    
    92   46  108 1    
    93   46  109 1    
    94   47   48 1    
    95   48  110 1    
    96   48  111 1    
    97   49   50 am   BACKBONE|DICT|INTERRES
    98   49  112 1    
    99   50   51 2    
   100   50   52 1    
   101   52   53 1    
   102   52   54 1    
   103   52  113 1    
   104   53  114 1    
   105   53  115 1    
   106   53  116 1    
   107   54   55 am   BACKBONE|DICT|INTERRES
   108   54  117 1    
   109   55   56 2    
   110   55   57 1    
   111   57   58 1    
   112   57   59 1    
   113   57  118 1    
   114   58  119 1    
   115   58  120 1    
   116   58  121 1    
   117   59   60 am   BACKBONE|DICT|INTERRES
   118   59  122 1    
   119   60   61 2    
   120   60   62 1    
   121   62   63 1    
   122   62   64 1    
   123   62  123 1    
   124   63  124 1    
   125   63  125 1    
   126   63  126 1    
   127   64   65 am   BACKBONE|DICT|INTERRES
   128   64  127 1    
   129   65   66 2    
@<TRIPOS>SUBSTRUCTURE
     1 UNK         1 GROUP             0       ****    0 ROOT    
