@<TRIPOS>MOLECULE
3R134
127   129    1
SMALL
USER_CHARGES


@<TRIPOS>ATOM
      1 CA         33.3418  -45.2355  -46.6176 C.3       0 UNK        -0.1968 
      2 C          33.9036  -45.4787  -48.0108 C.2       0 UNK         0.4852 
      3 O          35.1176  -45.6265  -48.1629 O.2       0 UNK        -0.5359 
      4 N          33.0320  -45.5119  -49.0268 N.am      1 UNK        -0.4300 
      5 CA         33.3796  -45.7779  -50.4267 C.3       1 UNK         0.0863 
      6 C6         32.2227  -45.4227  -51.3918 C.3       11 UNK        -0.0953 
      7 S7         31.5342  -43.7482  -51.1588 S.3       11 UNK        -0.2369 
      8 C8         32.2928  -42.8045  -52.5199 C.3       11 UNK         0.0226 
      9 C9         31.7401  -43.1670  -53.8949 C.ar      11 UNK        -0.0699 
     10 C10        32.6059  -43.6203  -54.8958 C.ar      11 UNK        -0.0804 
     11 C11        32.1244  -43.8971  -56.1782 C.ar      11 UNK        -0.0871 
     12 C12        30.7667  -43.7336  -56.4481 C.ar      11 UNK        -0.1008 
     13 C13        29.8795  -43.3038  -55.4600 C.ar      11 UNK        -0.0735 
     14 C14        30.3780  -43.0091  -54.1847 C.ar      11 UNK        -0.0945 
     15 C15        28.3837  -43.2094  -55.7519 C.3       11 UNK         0.0169 
     16 S16        27.9603  -42.0578  -57.1025 S.3       11 UNK        -0.2669 
     17 C17        27.9096  -43.1320  -58.5870 C.3       11 UNK        -0.0850 
     18 CA         26.5027  -43.7169  -58.8683 C.3       10 UNK         0.0855 
     19 C          26.4205  -44.3005  -60.3020 C.2       10 UNK         0.5543 
     20 N          25.7708  -43.6014  -61.2220 N.am      10 UNK        -0.7343 
     21 O          26.9776  -45.3562  -60.5961 O.2       10 UNK        -0.5027 
     22 N          26.1628  -44.7562  -57.8913 N.am      10 UNK        -0.4495 
     23 C          24.9295  -44.9983  -57.4364 C.2       10 UNK         0.4903 
     24 O          23.9377  -44.3382  -57.7520 O.2       10 UNK        -0.4860 
     25 CA         24.7970  -46.1733  -56.4511 C.3       9 UNK         0.0227 
     26 CB         23.3402  -46.4507  -56.0227 C.3       9 UNK        -0.1964 
     27 N          25.4417  -47.3959  -56.9407 N.am      9 UNK        -0.4231 
     28 C          25.1375  -48.1109  -58.0359 C.2       9 UNK         0.5014 
     29 O          24.2317  -47.8210  -58.8185 O.2       9 UNK        -0.5270 
     30 CA         25.9810  -49.3737  -58.3148 C.3       8 UNK         0.0284 
     31 CB         26.8908  -49.1482  -59.5338 C.3       8 UNK        -0.1977 
     32 N          26.8086  -49.7959  -57.1808 N.am      8 UNK        -0.4342 
     33 C          26.3555  -50.3201  -56.0329 C.2       8 UNK         0.5039 
     34 O          25.1809  -50.6309  -55.8356 O.2       8 UNK        -0.5547 
     35 CA         27.3789  -50.4492  -54.8907 C.3       7 UNK         0.0281 
     36 CB         28.1319  -51.7881  -54.9565 C.3       7 UNK        -0.1963 
     37 N          28.3306  -49.3318  -54.8948 N.am      7 UNK        -0.4444 
     38 C          28.0191  -48.0836  -54.5159 C.2       7 UNK         0.5104 
     39 O          26.9250  -47.7678  -54.0512 O.2       7 UNK        -0.5100 
     40 CA         29.0744  -46.9903  -54.7311 C.3       6 UNK         0.0396 
     41 CB         29.9107  -46.7801  -53.4687 C.3       6 UNK        -0.1801 
     42 N          29.9584  -47.2660  -55.8634 N.am      6 UNK        -0.4747 
     43 C          29.6381  -47.0278  -57.1431 C.2       6 UNK         0.5012 
     44 O          28.5781  -46.5002  -57.4871 O.2       6 UNK        -0.5003 
     45 CA         30.6346  -47.5096  -58.2236 C.3       5 UNK         0.0782 
     46 C46        31.6255  -46.4001  -58.6655 C.3       11 UNK        -0.0868 
     47 S47        33.0357  -46.1504  -57.5181 S.3       11 UNK        -0.2515 
     48 C48        33.0686  -44.3465  -57.2831 C.3       11 UNK         0.0199 
     49 N          31.3540  -48.7297  -57.8482 N.am      5 UNK        -0.4607 
     50 C          30.8132  -49.9050  -57.5164 C.2       4 UNK         0.5031 
     51 O          29.6049  -50.1309  -57.5536 O.2       4 UNK        -0.5119 
     52 CA         31.7732  -50.9915  -56.9990 C.3       4 UNK         0.0263 
     53 CB         33.2191  -50.8321  -57.5211 C.3       4 UNK        -0.1967 
     54 N          31.7764  -51.0925  -55.5321 N.am      4 UNK        -0.4237 
     55 C          32.0036  -50.1139  -54.6396 C.2       3 UNK         0.4908 
     56 O          32.1447  -48.9276  -54.9415 O.2       3 UNK        -0.5102 
     57 CA         32.0553  -50.5079  -53.1473 C.3       3 UNK         0.0241 
     58 CB         32.1869  -52.0281  -52.8989 C.3       3 UNK        -0.1971 
     59 N          33.1010  -49.7775  -52.4153 N.am      3 UNK        -0.4139 
     60 C          34.4151  -49.7411  -52.6864 C.2       2 UNK         0.5016 
     61 O          34.9409  -50.3703  -53.6073 O.2       2 UNK        -0.5319 
     62 CA         35.2948  -48.8640  -51.7655 C.3       2 UNK         0.0286 
     63 CB         36.7284  -48.6950  -52.3052 C.3       2 UNK        -0.1963 
     64 N          34.7363  -47.5304  -51.5024 N.am      2 UNK        -0.4790 
     65 C          33.7758  -47.2589  -50.6100 C.2       1 UNK         0.5024 
     66 O          33.1794  -48.1348  -49.9777 O.2       1 UNK        -0.4888 
     67 H67        32.2596  -45.1066  -46.6310 H         1 UNK         0.0892 
     68 H68        33.5747  -46.0782  -45.9671 H         1 UNK         0.0892 
     69 H69        33.7843  -44.3383  -46.1857 H         1 UNK         0.0892 
     70 H70        32.0465  -45.3916  -48.8426 H         1 UNK         0.3107 
     71 H71        34.2403  -45.1547  -50.6790 H         1 UNK         0.0773 
     72 H72        31.3972  -46.1214  -51.2485 H         1 UNK         0.0680 
     73 H73        32.5499  -45.5364  -52.4267 H         1 UNK         0.0680 
     74 H74        33.3746  -42.9411  -52.4816 H         1 UNK         0.0650 
     75 H75        32.1137  -41.7429  -52.3450 H         1 UNK         0.0650 
     76 H76        33.6595  -43.7397  -54.6835 H         1 UNK         0.1397 
     77 H77        30.4047  -43.9505  -57.4358 H         1 UNK         0.1363 
     78 H78        29.7067  -42.6672  -53.4089 H         1 UNK         0.1355 
     79 H79        27.9996  -44.1986  -55.9904 H         1 UNK         0.0707 
     80 H80        27.8479  -42.8878  -54.8578 H         1 UNK         0.0707 
     81 H81        28.2360  -42.5146  -59.4264 H         1 UNK         0.1034 
     82 H82        28.6324  -43.9418  -58.5195 H         1 UNK         0.1034 
     83 H83        25.7825  -42.8996  -58.7896 H         1 UNK         0.0482 
     84 H84        25.3180  -42.7303  -60.9918 H         1 UNK         0.3460 
     85 H85        25.7212  -43.9580  -62.1635 H         1 UNK         0.3460 
     86 H86        26.9136  -45.3995  -57.6588 H         1 UNK         0.2989 
     87 H87        25.3481  -45.8804  -55.5561 H         1 UNK         0.0559 
     88 H88        22.7088  -46.7131  -56.8721 H         1 UNK         0.0848 
     89 H89        22.8989  -45.5724  -55.5502 H         1 UNK         0.0848 
     90 H90        23.2884  -47.2664  -55.3015 H         1 UNK         0.0848 
     91 H91        26.2095  -47.7301  -56.3759 H         1 UNK         0.3144 
     92 H92        25.2883  -50.1852  -58.5467 H         1 UNK         0.0727 
     93 H93        27.4795  -50.0365  -59.7636 H         1 UNK         0.0790 
     94 H94        27.5802  -48.3191  -59.3719 H         1 UNK         0.0790 
     95 H95        26.3025  -48.9092  -60.4209 H         1 UNK         0.0790 
     96 H96        27.8154  -49.6863  -57.2867 H         1 UNK         0.3215 
     97 H97        26.8263  -50.4232  -53.9485 H         1 UNK         0.0863 
     98 H98        28.8347  -51.8888  -54.1296 H         1 UNK         0.0808 
     99 H99        28.6868  -51.9047  -55.8870 H         1 UNK         0.0808 
    100 H100       27.4352  -52.6248  -54.8912 H         1 UNK         0.0808 
    101 H101       29.2223  -49.4896  -55.3422 H         1 UNK         0.3118 
    102 H102       28.5388  -46.0612  -54.9201 H         1 UNK         0.0546 
    103 H103       29.2789  -46.5194  -52.6187 H         1 UNK         0.0828 
    104 H104       30.6091  -45.9588  -53.6194 H         1 UNK         0.0828 
    105 H105       30.4816  -47.6680  -53.1981 H         1 UNK         0.0828 
    106 H106       30.8519  -47.7082  -55.6553 H         1 UNK         0.3005 
    107 H107       30.0223  -47.7654  -59.0910 H         1 UNK         0.1257 
    108 H108       31.1045  -45.4631  -58.8595 H         1 UNK         0.0775 
    109 H109       32.0556  -46.6811  -59.6280 H         1 UNK         0.0775 
    110 H110       34.0902  -44.0498  -57.0409 H         1 UNK         0.0840 
    111 H111       32.8263  -43.8420  -58.2197 H         1 UNK         0.0840 
    112 H112       32.3485  -48.6126  -57.7143 H         1 UNK         0.2987 
    113 H113       31.3885  -51.9395  -57.3785 H         1 UNK         0.0785 
    114 H114       33.2400  -50.7406  -58.6080 H         1 UNK         0.0798 
    115 H115       33.8225  -51.7024  -57.2628 H         1 UNK         0.0798 
    116 H116       33.7183  -49.9571  -57.1025 H         1 UNK         0.0798 
    117 H117       31.6446  -52.0257  -55.1683 H         1 UNK         0.3079 
    118 H118       31.1051  -50.1849  -52.7197 H         1 UNK         0.0794 
    119 H119       33.0824  -52.4418  -53.3649 H         1 UNK         0.0786 
    120 H120       31.3246  -52.5747  -53.2823 H         1 UNK         0.0786 
    121 H121       32.2439  -52.2450  -51.8320 H         1 UNK         0.0786 
    122 H122       32.7888  -49.2241  -51.6245 H         1 UNK         0.3032 
    123 H123       35.3676  -49.3998  -50.8159 H         1 UNK         0.1094 
    124 H124       37.2154  -49.6622  -52.4380 H         1 UNK         0.0794 
    125 H125       36.7378  -48.1893  -53.2716 H         1 UNK         0.0794 
    126 H126       37.3474  -48.1189  -51.6171 H         1 UNK         0.0794 
    127 H127       35.1433  -46.7677  -52.0253 H         1 UNK         0.3016 
@<TRIPOS>BOND
     1    1    2 1    
     2    1   67 1    
     3    1   68 1    
     4    1   69 1    
     5    2    3 2    
     6    2    4 am   BACKBONE|DICT|INTERRES
     7    4    5 1    
     8    4   70 1    
     9    5    6 1    
    10    5   65 1    
    11    5   71 1    
    12    6    7 1    
    13    6   72 1    
    14    6   73 1    
    15    7    8 1    
    16    8    9 1    
    17    8   74 1    
    18    8   75 1    
    19    9   10 ar   
    20    9   14 ar   
    21   10   11 ar   
    22   10   76 1    
    23   11   12 ar   
    24   11   48 1    
    25   12   13 ar   
    26   12   77 1    
    27   13   14 ar   
    28   13   15 1    
    29   14   78 1    
    30   15   16 1    
    31   15   79 1    
    32   15   80 1    
    33   16   17 1    
    34   17   18 1    
    35   17   81 1    
    36   17   82 1    
    37   18   19 1    
    38   18   22 1    
    39   18   83 1    
    40   19   20 am   BACKBONE|DICT|INTERRES
    41   19   21 2    
    42   20   84 1    
    43   20   85 1    
    44   22   23 am   BACKBONE|DICT|INTERRES
    45   22   86 1    
    46   23   24 2    
    47   23   25 1    
    48   25   26 1    
    49   25   27 1    
    50   25   87 1    
    51   26   88 1    
    52   26   89 1    
    53   26   90 1    
    54   27   28 am   BACKBONE|DICT|INTERRES
    55   27   91 1    
    56   28   29 2    
    57   28   30 1    
    58   30   31 1    
    59   30   32 1    
    60   30   92 1    
    61   31   93 1    
    62   31   94 1    
    63   31   95 1    
    64   32   33 am   BACKBONE|DICT|INTERRES
    65   32   96 1    
    66   33   34 2    
    67   33   35 1    
    68   35   36 1    
    69   35   37 1    
    70   35   97 1    
    71   36   98 1    
    72   36   99 1    
    73   36  100 1    
    74   37   38 am   BACKBONE|DICT|INTERRES
    75   37  101 1    
    76   38   39 2    
    77   38   40 1    
    78   40   41 1    
    79   40   42 1    
    80   40  102 1    
    81   41  103 1    
    82   41  104 1    
    83   41  105 1    
    84   42   43 am   BACKBONE|DICT|INTERRES
    85   42  106 1    
    86   43   44 2    
    87   43   45 1    
    88   45   46 1    
    89   45   49 1    
    90   45  107 1    
    91   46   47 1    
    92   46  108 1    
    93   46  109 1    
    94   47   48 1    
    95   48  110 1    
    96   48  111 1    
    97   49   50 am   BACKBONE|DICT|INTERRES
    98   49  112 1    
    99   50   51 2    
   100   50   52 1    
   101   52   53 1    
   102   52   54 1    
   103   52  113 1    
   104   53  114 1    
   105   53  115 1    
   106   53  116 1    
   107   54   55 am   BACKBONE|DICT|INTERRES
   108   54  117 1    
   109   55   56 2    
   110   55   57 1    
   111   57   58 1    
   112   57   59 1    
   113   57  118 1    
   114   58  119 1    
   115   58  120 1    
   116   58  121 1    
   117   59   60 am   BACKBONE|DICT|INTERRES
   118   59  122 1    
   119   60   61 2    
   120   60   62 1    
   121   62   63 1    
   122   62   64 1    
   123   62  123 1    
   124   63  124 1    
   125   63  125 1    
   126   63  126 1    
   127   64   65 am   BACKBONE|DICT|INTERRES
   128   64  127 1    
   129   65   66 2    
@<TRIPOS>SUBSTRUCTURE
     1 UNK         1 GROUP             0       ****    0 ROOT    
