@<TRIPOS>MOLECULE
3R134
127   129    1
SMALL
USER_CHARGES


@<TRIPOS>ATOM
      1 CA         37.0751  -45.0680  -52.3706 C.3       0 UNK        -0.1968 
      2 C          35.6681  -45.6448  -52.3782 C.2       0 UNK         0.4852 
      3 O          35.4504  -46.7185  -52.9365 O.2       0 UNK        -0.5359 
      4 N          34.7124  -44.9554  -51.7413 N.am      1 UNK        -0.4300 
      5 CA         33.2797  -45.2951  -51.7141 C.3       1 UNK         0.0863 
      6 C6         32.4176  -44.1250  -51.1739 C.3       11 UNK        -0.0953 
      7 S7         32.7673  -42.5328  -51.9981 S.3       11 UNK        -0.2369 
      8 C8         31.3055  -42.3164  -53.0707 C.3       11 UNK         0.0226 
      9 C9         31.2186  -43.2543  -54.2770 C.ar      11 UNK        -0.0699 
     10 C10        32.3491  -43.8480  -54.8575 C.ar      11 UNK        -0.0804 
     11 C11        32.2281  -44.6769  -55.9782 C.ar      11 UNK        -0.0871 
     12 C12        30.9682  -44.8789  -56.5443 C.ar      11 UNK        -0.1008 
     13 C13        29.8318  -44.3008  -55.9763 C.ar      11 UNK        -0.0735 
     14 C14        29.9625  -43.4922  -54.8448 C.ar      11 UNK        -0.0945 
     15 C15        28.4650  -44.5808  -56.5757 C.3       11 UNK         0.0169 
     16 S16        28.0621  -43.4162  -57.9157 S.3       11 UNK        -0.2669 
     17 C17        26.9584  -42.2392  -57.0534 C.3       11 UNK        -0.0850 
     18 CA         25.4508  -42.5736  -57.2280 C.3       10 UNK         0.0855 
     19 C          24.9147  -42.1826  -58.6384 C.2       10 UNK         0.5543 
     20 N          24.4004  -43.1048  -59.4448 N.am      10 UNK        -0.7343 
     21 O          24.9531  -41.0093  -59.0009 O.2       10 UNK        -0.5027 
     22 N          25.1739  -43.9591  -56.8284 N.am      10 UNK        -0.4495 
     23 C          23.9935  -44.4511  -56.4424 C.2       10 UNK         0.4903 
     24 O          22.9891  -43.7610  -56.2622 O.2       10 UNK        -0.4860 
     25 CA         23.9403  -45.9774  -56.2217 C.3       9 UNK         0.0227 
     26 CB         22.5135  -46.5462  -56.3696 C.3       9 UNK        -0.1964 
     27 N          24.8864  -46.7388  -57.0547 N.am      9 UNK        -0.4231 
     28 C          24.9409  -46.7716  -58.3990 C.2       9 UNK         0.5014 
     29 O          24.2298  -46.0725  -59.1225 O.2       9 UNK        -0.5270 
     30 CA         25.9630  -47.7170  -59.0665 C.3       8 UNK         0.0284 
     31 CB         27.0723  -46.9136  -59.7654 C.3       8 UNK        -0.1977 
     32 N          26.5727  -48.6816  -58.1465 N.am      8 UNK        -0.4342 
     33 C          25.9264  -49.7213  -57.5952 C.2       8 UNK         0.5039 
     34 O          24.7783  -50.0447  -57.9015 O.2       8 UNK        -0.5547 
     35 CA         26.6525  -50.5180  -56.4921 C.3       7 UNK         0.0281 
     36 CB         27.1417  -51.8675  -57.0410 C.3       7 UNK        -0.1963 
     37 N          27.7791  -49.8104  -55.8731 N.am      7 UNK        -0.4444 
     38 C          27.7001  -48.6398  -55.2191 C.2       7 UNK         0.5104 
     39 O          26.6420  -48.0390  -55.0272 O.2       7 UNK        -0.5100 
     40 CA         29.0194  -47.9910  -54.7582 C.3       6 UNK         0.0396 
     41 CB         29.2503  -48.2582  -53.2656 C.3       6 UNK        -0.1801 
     42 N          30.2056  -48.4154  -55.5082 N.am      6 UNK        -0.4747 
     43 C          30.3735  -48.3284  -56.8385 C.2       6 UNK         0.5012 
     44 O          29.5305  -47.8571  -57.6034 O.2       6 UNK        -0.5003 
     45 CA         31.6633  -48.9395  -57.4275 C.3       5 UNK         0.0782 
     46 C46        32.7396  -47.8615  -57.7185 C.3       11 UNK        -0.0868 
     47 S47        33.5189  -47.1313  -56.2303 S.3       11 UNK        -0.2515 
     48 C48        33.4582  -45.3414  -56.5834 C.3       11 UNK         0.0199 
     49 N          32.1932  -50.0563  -56.6339 N.am      5 UNK        -0.4607 
     50 C          31.5216  -51.1741  -56.3188 C.2       4 UNK         0.5031 
     51 O          30.3885  -51.4205  -56.7323 O.2       4 UNK        -0.5119 
     52 CA         32.1913  -52.1744  -55.3572 C.3       4 UNK         0.0263 
     53 CB         32.6350  -53.4320  -56.1224 C.3       4 UNK        -0.1967 
     54 N          33.3318  -51.6528  -54.5933 N.am      4 UNK        -0.4237 
     55 C          33.3046  -50.6243  -53.7336 C.2       3 UNK         0.4908 
     56 O          32.3066  -49.9289  -53.5270 O.2       3 UNK        -0.5102 
     57 CA         34.6407  -50.3171  -53.0339 C.3       3 UNK         0.0241 
     58 CB         35.6672  -49.7601  -54.0359 C.3       3 UNK        -0.1971 
     59 N          34.4870  -49.3661  -51.9313 N.am      3 UNK        -0.4139 
     60 C          33.9768  -49.6714  -50.7277 C.2       2 UNK         0.5016 
     61 O          33.6314  -50.8098  -50.4055 O.2       2 UNK        -0.5319 
     62 CA         33.8502  -48.5386  -49.6879 C.3       2 UNK         0.0286 
     63 CB         34.9384  -48.6730  -48.6096 C.3       2 UNK        -0.1963 
     64 N          33.9340  -47.2015  -50.2784 N.am      2 UNK        -0.4790 
     65 C          32.9492  -46.6094  -50.9684 C.2       1 UNK         0.5024 
     66 O          31.8101  -47.0691  -51.0366 O.2       1 UNK        -0.4888 
     67 H67        37.7646  -45.7671  -51.8984 H         1 UNK         0.0892 
     68 H68        37.4121  -44.8945  -53.3922 H         1 UNK         0.0892 
     69 H69        37.1259  -44.1224  -51.8312 H         1 UNK         0.0892 
     70 H70        34.9500  -44.0814  -51.2933 H         1 UNK         0.3107 
     71 H71        32.9823  -45.4769  -52.7480 H         1 UNK         0.0773 
     72 H72        32.5932  -43.9877  -50.1053 H         1 UNK         0.0680 
     73 H73        31.3551  -44.3534  -51.2785 H         1 UNK         0.0680 
     74 H74        31.3105  -41.2913  -53.4430 H         1 UNK         0.0650 
     75 H75        30.4099  -42.4134  -52.4550 H         1 UNK         0.0650 
     76 H76        33.3298  -43.6696  -54.4399 H         1 UNK         0.1397 
     77 H77        30.8647  -45.4985  -57.4230 H         1 UNK         0.1363 
     78 H78        29.0823  -43.0395  -54.4090 H         1 UNK         0.1355 
     79 H79        27.7027  -44.5608  -55.7960 H         1 UNK         0.0707 
     80 H80        28.4446  -45.5922  -56.9782 H         1 UNK         0.0707 
     81 H81        27.2100  -42.2206  -55.9922 H         1 UNK         0.1034 
     82 H82        27.1759  -41.2312  -57.4119 H         1 UNK         0.1034 
     83 H83        24.9071  -41.9304  -56.5334 H         1 UNK         0.0482 
     84 H84        24.3567  -44.0806  -59.1706 H         1 UNK         0.3460 
     85 H85        24.0545  -42.8264  -60.3488 H         1 UNK         0.3460 
     86 H86        25.9268  -44.6094  -56.9919 H         1 UNK         0.2989 
     87 H87        24.2538  -46.1415  -55.1897 H         1 UNK         0.0559 
     88 H88        22.1079  -46.3648  -57.3656 H         1 UNK         0.0848 
     89 H89        21.8309  -46.0886  -55.6524 H         1 UNK         0.0848 
     90 H90        22.4947  -47.6213  -56.1910 H         1 UNK         0.0848 
     91 H91        25.5326  -47.3250  -56.5332 H         1 UNK         0.3144 
     92 H92        25.4224  -48.2779  -59.8317 H         1 UNK         0.0727 
     93 H93        27.6615  -46.3331  -59.0567 H         1 UNK         0.0790 
     94 H94        26.6536  -46.2130  -60.4892 H         1 UNK         0.0790 
     95 H95        27.7549  -47.5684  -60.3073 H         1 UNK         0.0790 
     96 H96        27.5294  -48.4945  -57.8620 H         1 UNK         0.3215 
     97 H97        25.9210  -50.7132  -55.7051 H         1 UNK         0.0863 
     98 H98        27.8749  -51.7352  -57.8378 H         1 UNK         0.0808 
     99 H99        26.3135  -52.4458  -57.4531 H         1 UNK         0.0808 
    100 H100       27.6017  -52.4730  -56.2598 H         1 UNK         0.0808 
    101 H101       28.6962  -50.2203  -56.0126 H         1 UNK         0.3118 
    102 H102       28.9175  -46.9141  -54.8954 H         1 UNK         0.0546 
    103 H103       28.3989  -47.9283  -52.6687 H         1 UNK         0.0828 
    104 H104       30.1256  -47.7197  -52.9053 H         1 UNK         0.0828 
    105 H105       29.4048  -49.3189  -53.0632 H         1 UNK         0.0828 
    106 H106       30.9549  -48.8294  -54.9639 H         1 UNK         0.3005 
    107 H107       31.3678  -49.3663  -58.3888 H         1 UNK         0.1257 
    108 H108       32.3214  -47.0755  -58.3490 H         1 UNK         0.0775 
    109 H109       33.5379  -48.3065  -58.3142 H         1 UNK         0.0775 
    110 H110       34.3645  -44.8881  -56.1788 H         1 UNK         0.0840 
    111 H111       33.4916  -45.1613  -57.6587 H         1 UNK         0.0840 
    112 H112       33.1066  -49.9142  -56.2290 H         1 UNK         0.2987 
    113 H113       31.4282  -52.4681  -54.6335 H         1 UNK         0.0785 
    114 H114       33.4221  -53.2085  -56.8437 H         1 UNK         0.0798 
    115 H115       31.8017  -53.8687  -56.6752 H         1 UNK         0.0798 
    116 H116       33.0064  -54.2008  -55.4445 H         1 UNK         0.0798 
    117 H117       34.2031  -52.1502  -54.7108 H         1 UNK         0.3079 
    118 H118       35.0306  -51.2519  -52.6253 H         1 UNK         0.0794 
    119 H119       35.3017  -48.8569  -54.5250 H         1 UNK         0.0786 
    120 H120       35.8973  -50.4833  -54.8188 H         1 UNK         0.0786 
    121 H121       36.6074  -49.5114  -53.5432 H         1 UNK         0.0786 
    122 H122       34.7212  -48.3999  -52.1406 H         1 UNK         0.3032 
    123 H123       32.8750  -48.6490  -49.2077 H         1 UNK         0.1094 
    124 H124       34.8228  -47.9176  -47.8321 H         1 UNK         0.0794 
    125 H125       34.8861  -49.6475  -48.1218 H         1 UNK         0.0794 
    126 H126       35.9396  -48.5733  -49.0309 H         1 UNK         0.0794 
    127 H127       34.8387  -46.7530  -50.2690 H         1 UNK         0.3016 
@<TRIPOS>BOND
     1    1    2 1    
     2    1   67 1    
     3    1   68 1    
     4    1   69 1    
     5    2    3 2    
     6    2    4 am   BACKBONE|DICT|INTERRES
     7    4    5 1    
     8    4   70 1    
     9    5    6 1    
    10    5   65 1    
    11    5   71 1    
    12    6    7 1    
    13    6   72 1    
    14    6   73 1    
    15    7    8 1    
    16    8    9 1    
    17    8   74 1    
    18    8   75 1    
    19    9   10 ar   
    20    9   14 ar   
    21   10   11 ar   
    22   10   76 1    
    23   11   12 ar   
    24   11   48 1    
    25   12   13 ar   
    26   12   77 1    
    27   13   14 ar   
    28   13   15 1    
    29   14   78 1    
    30   15   16 1    
    31   15   79 1    
    32   15   80 1    
    33   16   17 1    
    34   17   18 1    
    35   17   81 1    
    36   17   82 1    
    37   18   19 1    
    38   18   22 1    
    39   18   83 1    
    40   19   20 am   BACKBONE|DICT|INTERRES
    41   19   21 2    
    42   20   84 1    
    43   20   85 1    
    44   22   23 am   BACKBONE|DICT|INTERRES
    45   22   86 1    
    46   23   24 2    
    47   23   25 1    
    48   25   26 1    
    49   25   27 1    
    50   25   87 1    
    51   26   88 1    
    52   26   89 1    
    53   26   90 1    
    54   27   28 am   BACKBONE|DICT|INTERRES
    55   27   91 1    
    56   28   29 2    
    57   28   30 1    
    58   30   31 1    
    59   30   32 1    
    60   30   92 1    
    61   31   93 1    
    62   31   94 1    
    63   31   95 1    
    64   32   33 am   BACKBONE|DICT|INTERRES
    65   32   96 1    
    66   33   34 2    
    67   33   35 1    
    68   35   36 1    
    69   35   37 1    
    70   35   97 1    
    71   36   98 1    
    72   36   99 1    
    73   36  100 1    
    74   37   38 am   BACKBONE|DICT|INTERRES
    75   37  101 1    
    76   38   39 2    
    77   38   40 1    
    78   40   41 1    
    79   40   42 1    
    80   40  102 1    
    81   41  103 1    
    82   41  104 1    
    83   41  105 1    
    84   42   43 am   BACKBONE|DICT|INTERRES
    85   42  106 1    
    86   43   44 2    
    87   43   45 1    
    88   45   46 1    
    89   45   49 1    
    90   45  107 1    
    91   46   47 1    
    92   46  108 1    
    93   46  109 1    
    94   47   48 1    
    95   48  110 1    
    96   48  111 1    
    97   49   50 am   BACKBONE|DICT|INTERRES
    98   49  112 1    
    99   50   51 2    
   100   50   52 1    
   101   52   53 1    
   102   52   54 1    
   103   52  113 1    
   104   53  114 1    
   105   53  115 1    
   106   53  116 1    
   107   54   55 am   BACKBONE|DICT|INTERRES
   108   54  117 1    
   109   55   56 2    
   110   55   57 1    
   111   57   58 1    
   112   57   59 1    
   113   57  118 1    
   114   58  119 1    
   115   58  120 1    
   116   58  121 1    
   117   59   60 am   BACKBONE|DICT|INTERRES
   118   59  122 1    
   119   60   61 2    
   120   60   62 1    
   121   62   63 1    
   122   62   64 1    
   123   62  123 1    
   124   63  124 1    
   125   63  125 1    
   126   63  126 1    
   127   64   65 am   BACKBONE|DICT|INTERRES
   128   64  127 1    
   129   65   66 2    
@<TRIPOS>SUBSTRUCTURE
     1 UNK         1 GROUP             0       ****    0 ROOT    
