@<TRIPOS>MOLECULE
3R134
127   129    1
SMALL
USER_CHARGES


@<TRIPOS>ATOM
      1 CA         35.7666  -46.0749  -51.0354 C.3       0 UNK        -0.1968 
      2 C          35.3738  -46.4819  -52.4475 C.2       0 UNK         0.4852 
      3 O          34.4035  -47.2210  -52.6105 O.2       0 UNK        -0.5359 
      4 N          36.1274  -46.0073  -53.4512 N.am      1 UNK        -0.4300 
      5 CA         35.9720  -46.2254  -54.8972 C.3       1 UNK         0.0863 
      6 C6         35.0036  -45.2164  -55.5855 C.3       11 UNK        -0.0953 
      7 S7         33.2457  -45.2666  -55.0837 S.3       11 UNK        -0.2369 
      8 C8         33.0474  -43.6995  -54.1857 C.3       11 UNK         0.0226 
      9 C9         31.5729  -43.3586  -54.0378 C.ar      11 UNK        -0.0699 
     10 C10        30.8996  -43.5767  -52.8319 C.ar      11 UNK        -0.0804 
     11 C11        29.5384  -43.2714  -52.7149 C.ar      11 UNK        -0.0871 
     12 C12        28.8492  -42.7616  -53.8209 C.ar      11 UNK        -0.1008 
     13 C13        29.5141  -42.5317  -55.0297 C.ar      11 UNK        -0.0735 
     14 C14        30.8785  -42.8214  -55.1245 C.ar      11 UNK        -0.0945 
     15 C15        28.7664  -41.9516  -56.2246 C.3       11 UNK         0.0169 
     16 S16        28.9507  -42.9960  -57.7024 S.3       11 UNK        -0.2669 
     17 C17        27.7561  -42.2366  -58.8530 C.3       11 UNK        -0.0850 
     18 CA         26.3470  -42.8836  -58.7802 C.3       10 UNK         0.0855 
     19 C          25.3840  -42.2319  -59.8148 C.2       10 UNK         0.5543 
     20 N          24.8548  -42.9651  -60.7865 N.am      10 UNK        -0.7343 
     21 O          25.1112  -41.0370  -59.7299 O.2       10 UNK        -0.5027 
     22 N          26.4163  -44.3537  -58.8255 N.am      10 UNK        -0.4495 
     23 C          25.4629  -45.1885  -58.4022 C.2       10 UNK         0.4903 
     24 O          24.3615  -44.8192  -57.9940 O.2       10 UNK        -0.4860 
     25 CA         25.7929  -46.6900  -58.4013 C.3       9 UNK         0.0227 
     26 CB         25.5288  -47.3298  -59.7778 C.3       9 UNK        -0.1964 
     27 N          27.1320  -47.0145  -57.8909 N.am      9 UNK        -0.4231 
     28 C          28.3378  -46.8124  -58.4439 C.2       9 UNK         0.5014 
     29 O          28.5156  -46.2346  -59.5172 O.2       9 UNK        -0.5270 
     30 CA         29.5526  -47.3598  -57.6677 C.3       8 UNK         0.0284 
     31 CB         30.0843  -46.3168  -56.6728 C.3       8 UNK        -0.1977 
     32 N          29.2515  -48.6004  -56.9478 N.am      8 UNK        -0.4342 
     33 C          28.9656  -49.7728  -57.5335 C.2       8 UNK         0.5039 
     34 O          29.0176  -49.9676  -58.7484 O.2       8 UNK        -0.5547 
     35 CA         28.5133  -50.9131  -56.6083 C.3       7 UNK         0.0281 
     36 CB         29.7213  -51.6754  -56.0382 C.3       7 UNK        -0.1963 
     37 N          27.6654  -50.4177  -55.5201 N.am      7 UNK        -0.4444 
     38 C          26.3782  -50.0688  -55.6704 C.2       7 UNK         0.5104 
     39 O          25.7480  -50.2098  -56.7180 O.2       7 UNK        -0.5100 
     40 CA         25.6741  -49.4378  -54.4547 C.3       6 UNK         0.0396 
     41 CB         24.9959  -50.5236  -53.6048 C.3       6 UNK        -0.1801 
     42 N          26.5756  -48.6512  -53.6088 N.am      6 UNK        -0.4747 
     43 C          27.1547  -47.4954  -53.9706 C.2       6 UNK         0.5012 
     44 O          26.9417  -46.9382  -55.0454 O.2       6 UNK        -0.5003 
     45 CA         28.1912  -46.9014  -52.9939 C.3       5 UNK         0.0782 
     46 C46        27.5261  -45.8859  -52.0341 C.3       11 UNK        -0.0868 
     47 S47        28.7166  -45.1769  -50.8449 S.3       11 UNK        -0.2515 
     48 C48        28.8241  -43.4403  -51.3797 C.3       11 UNK         0.0199 
     49 N          28.9177  -47.9570  -52.2753 N.am      5 UNK        -0.4607 
     50 C          29.7521  -48.8236  -52.8570 C.2       4 UNK         0.5031 
     51 O          29.9925  -48.8366  -54.0671 O.2       4 UNK        -0.5119 
     52 CA         30.3708  -49.8902  -51.9542 C.3       4 UNK         0.0263 
     53 CB         29.5853  -51.2118  -52.0505 C.3       4 UNK        -0.1967 
     54 N          31.7522  -50.0735  -52.3749 N.am      4 UNK        -0.4237 
     55 C          32.7274  -50.6392  -51.6555 C.2       3 UNK         0.4908 
     56 O          32.5420  -51.1716  -50.5598 O.2       3 UNK        -0.5102 
     57 CA         34.1605  -50.5543  -52.2113 C.3       3 UNK         0.0241 
     58 CB         34.9019  -51.9076  -52.1635 C.3       3 UNK        -0.1971 
     59 N          34.2476  -49.9031  -53.5258 N.am      3 UNK        -0.4139 
     60 C          33.9853  -50.4072  -54.7414 C.2       2 UNK         0.5016 
     61 O          33.6381  -51.5711  -54.9416 O.2       2 UNK        -0.5319 
     62 CA         34.0947  -49.4509  -55.9484 C.3       2 UNK         0.0286 
     63 CB         32.7469  -49.3541  -56.6838 C.3       2 UNK        -0.1963 
     64 N          34.5275  -48.0928  -55.6050 N.am      2 UNK        -0.4790 
     65 C          35.7686  -47.7114  -55.2795 C.2       1 UNK         0.5024 
     66 O          36.7315  -48.4794  -55.2564 O.2       1 UNK        -0.4888 
     67 H67        34.9416  -45.5484  -50.5565 H         1 UNK         0.0892 
     68 H68        35.9971  -46.9590  -50.4417 H         1 UNK         0.0892 
     69 H69        36.6384  -45.4211  -51.0242 H         1 UNK         0.0892 
     70 H70        36.9231  -45.4341  -53.2078 H         1 UNK         0.3107 
     71 H71        36.9582  -45.9899  -55.3013 H         1 UNK         0.0773 
     72 H72        35.3816  -44.2056  -55.4279 H         1 UNK         0.0680 
     73 H73        35.0363  -45.3603  -56.6670 H         1 UNK         0.0680 
     74 H74        33.5496  -42.8956  -54.7257 H         1 UNK         0.0650 
     75 H75        33.5328  -43.7771  -53.2117 H         1 UNK         0.0650 
     76 H76        31.4335  -43.9804  -51.9823 H         1 UNK         0.1397 
     77 H77        27.7974  -42.5244  -53.7353 H         1 UNK         0.1363 
     78 H78        31.3987  -42.6488  -56.0569 H         1 UNK         0.1355 
     79 H79        27.7044  -41.8448  -55.9978 H         1 UNK         0.0707 
     80 H80        29.1467  -40.9516  -56.4371 H         1 UNK         0.0707 
     81 H81        27.7002  -41.1640  -58.6564 H         1 UNK         0.1034 
     82 H82        28.1623  -42.3362  -59.8613 H         1 UNK         0.1034 
     83 H83        25.9347  -42.6273  -57.8023 H         1 UNK         0.0482 
     84 H84        25.0726  -43.9460  -60.8565 H         1 UNK         0.3460 
     85 H85        24.2299  -42.5347  -61.4499 H         1 UNK         0.3460 
     86 H86        27.2914  -44.7585  -59.1449 H         1 UNK         0.2989 
     87 H87        25.1056  -47.1566  -57.6935 H         1 UNK         0.0559 
     88 H88        24.4938  -47.1752  -60.0850 H         1 UNK         0.0848 
     89 H89        25.7022  -48.4058  -59.7513 H         1 UNK         0.0848 
     90 H90        26.1636  -46.9068  -60.5567 H         1 UNK         0.0848 
     91 H91        27.1325  -47.3585  -56.9349 H         1 UNK         0.3144 
     92 H92        30.3432  -47.5798  -58.3880 H         1 UNK         0.0727 
     93 H93        29.2948  -45.9156  -56.0366 H         1 UNK         0.0790 
     94 H94        30.5332  -45.4747  -57.1997 H         1 UNK         0.0790 
     95 H95        30.8524  -46.7364  -56.0243 H         1 UNK         0.0790 
     96 H96        29.2695  -48.5605  -55.9337 H         1 UNK         0.3215 
     97 H97        27.9296  -51.6146  -57.2089 H         1 UNK         0.0863 
     98 H98        30.3391  -52.0771  -56.8424 H         1 UNK         0.0808 
     99 H99        29.4045  -52.5189  -55.4250 H         1 UNK         0.0808 
    100 H100       30.3631  -51.0386  -55.4296 H         1 UNK         0.0808 
    101 H101       28.1175  -50.2322  -54.6370 H         1 UNK         0.3118 
    102 H102       24.8987  -48.7682  -54.8335 H         1 UNK         0.0546 
    103 H103       25.7210  -51.2185  -53.1793 H         1 UNK         0.0828 
    104 H104       24.2984  -51.1091  -54.2057 H         1 UNK         0.0828 
    105 H105       24.4254  -50.0877  -52.7845 H         1 UNK         0.0828 
    106 H106       26.8011  -49.0335  -52.7017 H         1 UNK         0.3005 
    107 H107       28.9213  -46.3575  -53.5989 H         1 UNK         0.1257 
    108 H108       26.7277  -46.3625  -51.4622 H         1 UNK         0.0775 
    109 H109       27.0544  -45.0802  -52.6002 H         1 UNK         0.0775 
    110 H110       27.8212  -43.0115  -51.4117 H         1 UNK         0.0840 
    111 H111       29.3671  -42.8766  -50.6198 H         1 UNK         0.0840 
    112 H112       28.7797  -47.9899  -51.2753 H         1 UNK         0.2987 
    113 H113       30.3616  -49.5331  -50.9221 H         1 UNK         0.0785 
    114 H114       28.5371  -51.0676  -51.7860 H         1 UNK         0.0798 
    115 H115       29.9866  -51.9629  -51.3702 H         1 UNK         0.0798 
    116 H116       29.6173  -51.6277  -53.0573 H         1 UNK         0.0798 
    117 H117       31.9808  -49.6391  -53.2598 H         1 UNK         0.3079 
    118 H118       34.6887  -49.8814  -51.5343 H         1 UNK         0.0794 
    119 H119       35.9095  -51.8244  -52.5710 H         1 UNK         0.0786 
    120 H120       34.3743  -52.6825  -52.7198 H         1 UNK         0.0786 
    121 H121       34.9966  -52.2614  -51.1362 H         1 UNK         0.0786 
    122 H122       34.4457  -48.9052  -53.4704 H         1 UNK         0.3032 
    123 H123       34.8305  -49.8827  -56.6303 H         1 UNK         0.1094 
    124 H124       31.9655  -48.9624  -56.0324 H         1 UNK         0.0794 
    125 H125       32.8120  -48.7052  -57.5573 H         1 UNK         0.0794 
    126 H126       32.4176  -50.3328  -57.0350 H         1 UNK         0.0794 
    127 H127       33.8047  -47.3847  -55.5457 H         1 UNK         0.3016 
@<TRIPOS>BOND
     1    1    2 1    
     2    1   67 1    
     3    1   68 1    
     4    1   69 1    
     5    2    3 2    
     6    2    4 am   BACKBONE|DICT|INTERRES
     7    4    5 1    
     8    4   70 1    
     9    5    6 1    
    10    5   65 1    
    11    5   71 1    
    12    6    7 1    
    13    6   72 1    
    14    6   73 1    
    15    7    8 1    
    16    8    9 1    
    17    8   74 1    
    18    8   75 1    
    19    9   10 ar   
    20    9   14 ar   
    21   10   11 ar   
    22   10   76 1    
    23   11   12 ar   
    24   11   48 1    
    25   12   13 ar   
    26   12   77 1    
    27   13   14 ar   
    28   13   15 1    
    29   14   78 1    
    30   15   16 1    
    31   15   79 1    
    32   15   80 1    
    33   16   17 1    
    34   17   18 1    
    35   17   81 1    
    36   17   82 1    
    37   18   19 1    
    38   18   22 1    
    39   18   83 1    
    40   19   20 am   BACKBONE|DICT|INTERRES
    41   19   21 2    
    42   20   84 1    
    43   20   85 1    
    44   22   23 am   BACKBONE|DICT|INTERRES
    45   22   86 1    
    46   23   24 2    
    47   23   25 1    
    48   25   26 1    
    49   25   27 1    
    50   25   87 1    
    51   26   88 1    
    52   26   89 1    
    53   26   90 1    
    54   27   28 am   BACKBONE|DICT|INTERRES
    55   27   91 1    
    56   28   29 2    
    57   28   30 1    
    58   30   31 1    
    59   30   32 1    
    60   30   92 1    
    61   31   93 1    
    62   31   94 1    
    63   31   95 1    
    64   32   33 am   BACKBONE|DICT|INTERRES
    65   32   96 1    
    66   33   34 2    
    67   33   35 1    
    68   35   36 1    
    69   35   37 1    
    70   35   97 1    
    71   36   98 1    
    72   36   99 1    
    73   36  100 1    
    74   37   38 am   BACKBONE|DICT|INTERRES
    75   37  101 1    
    76   38   39 2    
    77   38   40 1    
    78   40   41 1    
    79   40   42 1    
    80   40  102 1    
    81   41  103 1    
    82   41  104 1    
    83   41  105 1    
    84   42   43 am   BACKBONE|DICT|INTERRES
    85   42  106 1    
    86   43   44 2    
    87   43   45 1    
    88   45   46 1    
    89   45   49 1    
    90   45  107 1    
    91   46   47 1    
    92   46  108 1    
    93   46  109 1    
    94   47   48 1    
    95   48  110 1    
    96   48  111 1    
    97   49   50 am   BACKBONE|DICT|INTERRES
    98   49  112 1    
    99   50   51 2    
   100   50   52 1    
   101   52   53 1    
   102   52   54 1    
   103   52  113 1    
   104   53  114 1    
   105   53  115 1    
   106   53  116 1    
   107   54   55 am   BACKBONE|DICT|INTERRES
   108   54  117 1    
   109   55   56 2    
   110   55   57 1    
   111   57   58 1    
   112   57   59 1    
   113   57  118 1    
   114   58  119 1    
   115   58  120 1    
   116   58  121 1    
   117   59   60 am   BACKBONE|DICT|INTERRES
   118   59  122 1    
   119   60   61 2    
   120   60   62 1    
   121   62   63 1    
   122   62   64 1    
   123   62  123 1    
   124   63  124 1    
   125   63  125 1    
   126   63  126 1    
   127   64   65 am   BACKBONE|DICT|INTERRES
   128   64  127 1    
   129   65   66 2    
@<TRIPOS>SUBSTRUCTURE
     1 UNK         1 GROUP             0       ****    0 ROOT    
