@<TRIPOS>MOLECULE
3R134
127   129    1
SMALL
USER_CHARGES


@<TRIPOS>ATOM
      1 CA         37.0071  -47.3064  -54.0969 C.3       0 UNK        -0.1968 
      2 C          35.5030  -47.0817  -54.1122 C.2       0 UNK         0.4852 
      3 O          34.8305  -47.5234  -55.0434 O.2       0 UNK        -0.5359 
      4 N          34.9713  -46.3911  -53.0963 N.am      1 UNK        -0.4300 
      5 CA         33.5409  -46.1179  -52.9385 C.3       1 UNK         0.0863 
      6 C6         33.2636  -44.9320  -51.9787 C.3       11 UNK        -0.0953 
      7 S7         34.0958  -43.3945  -52.4939 S.3       11 UNK        -0.2369 
      8 C8         32.6884  -42.2981  -52.8783 C.3       11 UNK         0.0226 
      9 C9         32.0278  -42.5695  -54.2281 C.ar      11 UNK        -0.0699 
     10 C10        32.7936  -42.8377  -55.3672 C.ar      11 UNK        -0.0804 
     11 C11        32.1846  -43.0049  -56.6137 C.ar      11 UNK        -0.0871 
     12 C12        30.7960  -42.8868  -56.7223 C.ar      11 UNK        -0.1008 
     13 C13        30.0104  -42.6267  -55.5926 C.ar      11 UNK        -0.0735 
     14 C14        30.6382  -42.4700  -54.3516 C.ar      11 UNK        -0.0945 
     15 C15        28.4945  -42.4490  -55.6802 C.3       11 UNK         0.0169 
     16 S16        27.6727  -43.4195  -56.9920 S.3       11 UNK        -0.2669 
     17 C17        25.9285  -43.0496  -56.6156 C.3       11 UNK        -0.0850 
     18 CA         25.2416  -44.1979  -55.8162 C.3       10 UNK         0.0855 
     19 C          23.9517  -43.7318  -55.0688 C.2       10 UNK         0.5543 
     20 N          22.9690  -44.5964  -54.8448 N.am      10 UNK        -0.7343 
     21 O          23.8472  -42.5805  -54.6521 O.2       10 UNK        -0.5027 
     22 N          25.0753  -45.4466  -56.5916 N.am      10 UNK        -0.4495 
     23 C          24.2865  -45.5941  -57.6677 C.2       10 UNK         0.4903 
     24 O          23.7084  -44.6569  -58.2210 O.2       10 UNK        -0.4860 
     25 CA         24.0333  -47.0314  -58.1677 C.3       9 UNK         0.0227 
     26 CB         23.3549  -47.0766  -59.5549 C.3       9 UNK        -0.1964 
     27 N          25.2048  -47.9114  -58.1357 N.am      9 UNK        -0.4231 
     28 C          26.3381  -47.8137  -58.8434 C.2       9 UNK         0.5014 
     29 O          26.5981  -46.8769  -59.6004 O.2       9 UNK        -0.5270 
     30 CA         27.3240  -48.9967  -58.7000 C.3       8 UNK         0.0284 
     31 CB         28.5828  -48.8354  -59.5729 C.3       8 UNK        -0.1977 
     32 N          27.7369  -49.2287  -57.3138 N.am      8 UNK        -0.4342 
     33 C          26.9750  -49.7264  -56.3300 C.2       8 UNK         0.5039 
     34 O          25.8245  -50.1339  -56.4996 O.2       8 UNK        -0.5547 
     35 CA         27.5651  -49.7027  -54.9105 C.3       7 UNK         0.0281 
     36 CB         28.2917  -51.0172  -54.5868 C.3       7 UNK        -0.1963 
     37 N          28.4660  -48.5641  -54.7093 N.am      7 UNK        -0.4444 
     38 C          28.0586  -47.2877  -54.6474 C.2       7 UNK         0.5104 
     39 O          26.8750  -46.9488  -54.6769 O.2       7 UNK        -0.5100 
     40 CA         29.1504  -46.2102  -54.5552 C.3       6 UNK         0.0396 
     41 CB         29.4108  -45.8287  -53.0911 C.3       6 UNK        -0.1801 
     42 N          30.4012  -46.6190  -55.2051 N.am      6 UNK        -0.4747 
     43 C          30.5817  -46.5949  -56.5350 C.2       6 UNK         0.5012 
     44 O          29.7168  -46.2223  -57.3255 O.2       6 UNK        -0.5003 
     45 CA         31.9119  -47.1458  -57.0967 C.3       5 UNK         0.0782 
     46 C46        33.0090  -46.0621  -57.2332 C.3       11 UNK        -0.0868 
     47 S47        32.6801  -44.9029  -58.6045 S.3       11 UNK        -0.2515 
     48 C48        33.0360  -43.2846  -57.8455 C.3       11 UNK         0.0199 
     49 N          32.4089  -48.3302  -56.3872 N.am      5 UNK        -0.4607 
     50 C          31.7596  -49.5003  -56.3387 C.2       4 UNK         0.5031 
     51 O          30.6137  -49.6513  -56.7616 O.2       4 UNK        -0.5119 
     52 CA         32.4843  -50.7126  -55.7437 C.3       4 UNK         0.0263 
     53 CB         34.0234  -50.6277  -55.7544 C.3       4 UNK        -0.1967 
     54 N          32.0045  -50.9494  -54.3871 N.am      4 UNK        -0.4237 
     55 C          31.8888  -52.1586  -53.8215 C.2       3 UNK         0.4908 
     56 O          32.1346  -53.2098  -54.4162 O.2       3 UNK        -0.5102 
     57 CA         31.4036  -52.2221  -52.3562 C.3       3 UNK         0.0241 
     58 CB         32.0556  -53.3822  -51.5725 C.3       3 UNK        -0.1971 
     59 N          31.5313  -50.9587  -51.6156 N.am      3 UNK        -0.4139 
     60 C          32.6604  -50.2902  -51.3368 C.2       2 UNK         0.5016 
     61 O          33.7929  -50.6574  -51.6569 O.2       2 UNK        -0.5319 
     62 CA         32.4852  -48.9690  -50.5731 C.3       2 UNK         0.0286 
     63 CB         33.0462  -49.0862  -49.1464 C.3       2 UNK        -0.1963 
     64 N          33.1286  -47.8448  -51.2551 N.am      2 UNK        -0.4790 
     65 C          32.8061  -47.3903  -52.4751 C.2       1 UNK         0.5024 
     66 O          31.9701  -47.9217  -53.2103 O.2       1 UNK        -0.4888 
     67 H67        37.4793  -46.8531  -53.2256 H         1 UNK         0.0892 
     68 H68        37.4582  -46.8762  -54.9906 H         1 UNK         0.0892 
     69 H69        37.2244  -48.3740  -54.0850 H         1 UNK         0.0892 
     70 H70        35.5731  -46.0283  -52.3711 H         1 UNK         0.3107 
     71 H71        33.1356  -45.8461  -53.9152 H         1 UNK         0.0773 
     72 H72        32.1915  -44.7502  -51.8968 H         1 UNK         0.0680 
     73 H73        33.6063  -45.1567  -50.9673 H         1 UNK         0.0680 
     74 H74        31.9602  -42.3583  -52.0680 H         1 UNK         0.0650 
     75 H75        33.0520  -41.2699  -52.8841 H         1 UNK         0.0650 
     76 H76        33.8700  -42.9007  -55.2860 H         1 UNK         0.1397 
     77 H77        30.3326  -43.0024  -57.6921 H         1 UNK         0.1363 
     78 H78        30.0416  -42.2419  -53.4788 H         1 UNK         0.1355 
     79 H79        28.2814  -41.3909  -55.8371 H         1 UNK         0.0707 
     80 H80        28.0410  -42.7224  -54.7258 H         1 UNK         0.0707 
     81 H81        25.4019  -42.8496  -57.5488 H         1 UNK         0.1034 
     82 H82        25.8965  -42.1088  -56.0638 H         1 UNK         0.1034 
     83 H83        25.9181  -44.4589  -55.0021 H         1 UNK         0.0482 
     84 H84        23.0475  -45.5512  -55.1547 H         1 UNK         0.3460 
     85 H85        22.1451  -44.2904  -54.3514 H         1 UNK         0.3460 
     86 H86        25.5315  -46.2573  -56.1894 H         1 UNK         0.2989 
     87 H87        23.3288  -47.4643  -57.4564 H         1 UNK         0.0559 
     88 H88        23.1513  -48.1013  -59.8656 H         1 UNK         0.0848 
     89 H89        23.9728  -46.6093  -60.3225 H         1 UNK         0.0848 
     90 H90        22.4000  -46.5497  -59.5428 H         1 UNK         0.0848 
     91 H91        25.1374  -48.7203  -57.5192 H         1 UNK         0.3144 
     92 H92        26.7987  -49.8890  -59.0468 H         1 UNK         0.0727 
     93 H93        29.2422  -49.6989  -59.4835 H         1 UNK         0.0790 
     94 H94        29.1538  -47.9488  -59.2963 H         1 UNK         0.0790 
     95 H95        28.3181  -48.7371  -60.6264 H         1 UNK         0.0790 
     96 H96        28.6916  -48.9730  -57.0832 H         1 UNK         0.3215 
     97 H97        26.7318  -49.5987  -54.2118 H         1 UNK         0.0863 
     98 H98        28.6775  -51.0133  -53.5681 H         1 UNK         0.0808 
     99 H99        29.1234  -51.2048  -55.2655 H         1 UNK         0.0808 
    100 H100       27.6106  -51.8651  -54.6708 H         1 UNK         0.0808 
    101 H101       29.4584  -48.7479  -54.7285 H         1 UNK         0.3118 
    102 H102       28.7743  -45.3210  -55.0613 H         1 UNK         0.0546 
    103 H103       28.5024  -45.4439  -52.6261 H         1 UNK         0.0828 
    104 H104       30.1648  -45.0470  -53.0176 H         1 UNK         0.0828 
    105 H105       29.7406  -46.6813  -52.4976 H         1 UNK         0.0828 
    106 H106       31.1226  -47.0165  -54.6097 H         1 UNK         0.3005 
    107 H107       31.6813  -47.4947  -58.1065 H         1 UNK         0.1257 
    108 H108       33.9696  -46.5313  -57.4511 H         1 UNK         0.0775 
    109 H109       33.1492  -45.5315  -56.2916 H         1 UNK         0.0775 
    110 H110       34.0991  -43.2383  -57.6039 H         1 UNK         0.0840 
    111 H111       32.8579  -42.5026  -58.5849 H         1 UNK         0.0840 
    112 H112       33.3261  -48.2403  -55.9531 H         1 UNK         0.2987 
    113 H113       32.1982  -51.5531  -56.3801 H         1 UNK         0.0785 
    114 H114       34.3981  -50.0000  -54.9473 H         1 UNK         0.0798 
    115 H115       34.4035  -50.2355  -56.6987 H         1 UNK         0.0798 
    116 H116       34.4631  -51.6158  -55.6187 H         1 UNK         0.0798 
    117 H117       31.7966  -50.1229  -53.8397 H         1 UNK         0.3079 
    118 H118       30.3345  -52.4316  -52.4102 H         1 UNK         0.0794 
    119 H119       33.1414  -53.2878  -51.5382 H         1 UNK         0.0786 
    120 H120       31.8289  -54.3447  -52.0328 H         1 UNK         0.0786 
    121 H121       31.6898  -53.4237  -50.5465 H         1 UNK         0.0786 
    122 H122       30.6568  -50.5571  -51.3055 H         1 UNK         0.3032 
    123 H123       31.4197  -48.7386  -50.5008 H         1 UNK         0.1094 
    124 H124       32.8701  -48.1760  -48.5727 H         1 UNK         0.0794 
    125 H125       32.5700  -49.9054  -48.6058 H         1 UNK         0.0794 
    126 H126       34.1199  -49.2798  -49.1498 H         1 UNK         0.0794 
    127 H127       33.8650  -47.3779  -50.7471 H         1 UNK         0.3016 
@<TRIPOS>BOND
     1    1    2 1    
     2    1   67 1    
     3    1   68 1    
     4    1   69 1    
     5    2    3 2    
     6    2    4 am   BACKBONE|DICT|INTERRES
     7    4    5 1    
     8    4   70 1    
     9    5    6 1    
    10    5   65 1    
    11    5   71 1    
    12    6    7 1    
    13    6   72 1    
    14    6   73 1    
    15    7    8 1    
    16    8    9 1    
    17    8   74 1    
    18    8   75 1    
    19    9   10 ar   
    20    9   14 ar   
    21   10   11 ar   
    22   10   76 1    
    23   11   12 ar   
    24   11   48 1    
    25   12   13 ar   
    26   12   77 1    
    27   13   14 ar   
    28   13   15 1    
    29   14   78 1    
    30   15   16 1    
    31   15   79 1    
    32   15   80 1    
    33   16   17 1    
    34   17   18 1    
    35   17   81 1    
    36   17   82 1    
    37   18   19 1    
    38   18   22 1    
    39   18   83 1    
    40   19   20 am   BACKBONE|DICT|INTERRES
    41   19   21 2    
    42   20   84 1    
    43   20   85 1    
    44   22   23 am   BACKBONE|DICT|INTERRES
    45   22   86 1    
    46   23   24 2    
    47   23   25 1    
    48   25   26 1    
    49   25   27 1    
    50   25   87 1    
    51   26   88 1    
    52   26   89 1    
    53   26   90 1    
    54   27   28 am   BACKBONE|DICT|INTERRES
    55   27   91 1    
    56   28   29 2    
    57   28   30 1    
    58   30   31 1    
    59   30   32 1    
    60   30   92 1    
    61   31   93 1    
    62   31   94 1    
    63   31   95 1    
    64   32   33 am   BACKBONE|DICT|INTERRES
    65   32   96 1    
    66   33   34 2    
    67   33   35 1    
    68   35   36 1    
    69   35   37 1    
    70   35   97 1    
    71   36   98 1    
    72   36   99 1    
    73   36  100 1    
    74   37   38 am   BACKBONE|DICT|INTERRES
    75   37  101 1    
    76   38   39 2    
    77   38   40 1    
    78   40   41 1    
    79   40   42 1    
    80   40  102 1    
    81   41  103 1    
    82   41  104 1    
    83   41  105 1    
    84   42   43 am   BACKBONE|DICT|INTERRES
    85   42  106 1    
    86   43   44 2    
    87   43   45 1    
    88   45   46 1    
    89   45   49 1    
    90   45  107 1    
    91   46   47 1    
    92   46  108 1    
    93   46  109 1    
    94   47   48 1    
    95   48  110 1    
    96   48  111 1    
    97   49   50 am   BACKBONE|DICT|INTERRES
    98   49  112 1    
    99   50   51 2    
   100   50   52 1    
   101   52   53 1    
   102   52   54 1    
   103   52  113 1    
   104   53  114 1    
   105   53  115 1    
   106   53  116 1    
   107   54   55 am   BACKBONE|DICT|INTERRES
   108   54  117 1    
   109   55   56 2    
   110   55   57 1    
   111   57   58 1    
   112   57   59 1    
   113   57  118 1    
   114   58  119 1    
   115   58  120 1    
   116   58  121 1    
   117   59   60 am   BACKBONE|DICT|INTERRES
   118   59  122 1    
   119   60   61 2    
   120   60   62 1    
   121   62   63 1    
   122   62   64 1    
   123   62  123 1    
   124   63  124 1    
   125   63  125 1    
   126   63  126 1    
   127   64   65 am   BACKBONE|DICT|INTERRES
   128   64  127 1    
   129   65   66 2    
@<TRIPOS>SUBSTRUCTURE
     1 UNK         1 GROUP             0       ****    0 ROOT    
