@<TRIPOS>MOLECULE
3R134
127   129    1
SMALL
USER_CHARGES


@<TRIPOS>ATOM
      1 CA         33.7463  -46.4630  -51.7606 C.3       0 UNK        -0.1968 
      2 C          33.7003  -46.2664  -53.2685 C.2       0 UNK         0.4852 
      3 O          33.0570  -47.0541  -53.9594 O.2       0 UNK        -0.5359 
      4 N          34.3779  -45.2260  -53.7768 N.am      1 UNK        -0.4300 
      5 CA         34.4313  -44.8232  -55.1882 C.3       1 UNK         0.0863 
      6 C6         33.0849  -44.2164  -55.6954 C.3       11 UNK        -0.0953 
      7 S7         33.0749  -42.3955  -55.6164 S.3       11 UNK        -0.2369 
      8 C8         32.8177  -42.0677  -53.8391 C.3       11 UNK         0.0226 
      9 C9         31.4809  -42.5395  -53.2697 C.ar      11 UNK        -0.0699 
     10 C10        31.4109  -42.8926  -51.9188 C.ar      11 UNK        -0.0804 
     11 C11        30.1985  -43.2826  -51.3445 C.ar      11 UNK        -0.0871 
     12 C12        29.0486  -43.3298  -52.1363 C.ar      11 UNK        -0.1008 
     13 C13        29.1047  -43.0249  -53.4982 C.ar      11 UNK        -0.0735 
     14 C14        30.3185  -42.5955  -54.0488 C.ar      11 UNK        -0.0945 
     15 C15        27.8330  -43.1578  -54.3347 C.3       11 UNK         0.0169 
     16 S16        28.1031  -43.5829  -56.0895 S.3       11 UNK        -0.2669 
     17 C17        28.8945  -45.2304  -55.9919 C.3       11 UNK        -0.0850 
     18 CA         29.4442  -45.6636  -57.3774 C.3       10 UNK         0.0855 
     19 C          30.3257  -46.9437  -57.2914 C.2       10 UNK         0.5543 
     20 N          30.0225  -48.0255  -58.0007 N.am      10 UNK        -0.7343 
     21 O          31.3398  -46.9394  -56.6019 O.2       10 UNK        -0.5027 
     22 N          28.3730  -45.7440  -58.3816 N.am      10 UNK        -0.4495 
     23 C          28.5459  -45.5976  -59.7015 C.2       10 UNK         0.4903 
     24 O          29.6182  -45.2785  -60.2177 O.2       10 UNK        -0.4860 
     25 CA         27.3111  -45.8534  -60.5950 C.3       9 UNK         0.0227 
     26 CB         27.6977  -46.2715  -62.0302 C.3       9 UNK        -0.1964 
     27 N          26.3499  -46.8087  -60.0219 N.am      9 UNK        -0.4231 
     28 C          26.6001  -48.0731  -59.6519 C.2       9 UNK         0.5014 
     29 O          27.6948  -48.6297  -59.7727 O.2       9 UNK        -0.5270 
     30 CA         25.4285  -48.8416  -59.0205 C.3       8 UNK         0.0284 
     31 CB         24.7908  -49.7929  -60.0462 C.3       8 UNK        -0.1977 
     32 N          25.8696  -49.6080  -57.8537 N.am      8 UNK        -0.4342 
     33 C          26.3234  -49.0668  -56.7157 C.2       8 UNK         0.5039 
     34 O          26.3622  -47.8519  -56.5000 O.2       8 UNK        -0.5547 
     35 CA         26.8499  -50.0591  -55.6662 C.3       7 UNK         0.0281 
     36 CB         28.3118  -50.4309  -55.9595 C.3       7 UNK        -0.1963 
     37 N          26.7504  -49.5177  -54.3091 N.am      7 UNK        -0.4444 
     38 C          25.6107  -49.4841  -53.6027 C.2       7 UNK         0.5104 
     39 O          24.5381  -49.9118  -54.0335 O.2       7 UNK        -0.5100 
     40 CA         25.6545  -48.9286  -52.1652 C.3       6 UNK         0.0396 
     41 CB         25.2920  -50.0299  -51.1536 C.3       6 UNK        -0.1801 
     42 N          26.9568  -48.3727  -51.7946 N.am      6 UNK        -0.4747 
     43 C          27.3202  -47.0922  -51.9495 C.2       6 UNK         0.5012 
     44 O          26.5796  -46.2201  -52.4035 O.2       6 UNK        -0.5003 
     45 CA         28.7566  -46.7192  -51.5226 C.3       5 UNK         0.0782 
     46 C46        28.7480  -46.1037  -50.1015 C.3       11 UNK        -0.0868 
     47 S47        30.3737  -45.4359  -49.6098 S.3       11 UNK        -0.2515 
     48 C48        30.1341  -43.6490  -49.8689 C.3       11 UNK         0.0199 
     49 N          29.7083  -47.8313  -51.6290 N.am      5 UNK        -0.4607 
     50 C          30.0305  -48.4429  -52.7731 C.2       4 UNK         0.5031 
     51 O          29.5061  -48.1859  -53.8584 O.2       4 UNK        -0.5119 
     52 CA         31.0543  -49.5734  -52.6705 C.3       4 UNK         0.0263 
     53 CB         30.3929  -50.8598  -52.1376 C.3       4 UNK        -0.1967 
     54 N          31.6081  -49.8035  -53.9979 N.am      4 UNK        -0.4237 
     55 C          32.7520  -50.4400  -54.2637 C.2       3 UNK         0.4908 
     56 O          33.4897  -50.9269  -53.4052 O.2       3 UNK        -0.5102 
     57 CA         33.1349  -50.5579  -55.7392 C.3       3 UNK         0.0241 
     58 CB         32.0119  -51.1965  -56.5831 C.3       3 UNK        -0.1971 
     59 N          33.5100  -49.2499  -56.2742 N.am      3 UNK        -0.4139 
     60 C          34.3078  -49.0826  -57.3377 C.2       2 UNK         0.5016 
     61 O          34.8246  -50.0183  -57.9512 O.2       2 UNK        -0.5319 
     62 CA         34.5848  -47.6523  -57.8255 C.3       2 UNK         0.0286 
     63 CB         33.8540  -47.3877  -59.1537 C.3       2 UNK        -0.1963 
     64 N          34.1772  -46.6332  -56.8585 N.am      2 UNK        -0.4790 
     65 C          35.0167  -45.9500  -56.0704 C.2       1 UNK         0.5024 
     66 O          36.2307  -46.1622  -56.0276 O.2       1 UNK        -0.4888 
     67 H67        32.7375  -46.4159  -51.3509 H         1 UNK         0.0892 
     68 H68        34.1658  -47.4402  -51.5231 H         1 UNK         0.0892 
     69 H69        34.3494  -45.7019  -51.2657 H         1 UNK         0.0892 
     70 H70        34.9293  -44.6544  -53.1527 H         1 UNK         0.3107 
     71 H71        35.1898  -44.0395  -55.2330 H         1 UNK         0.0773 
     72 H72        32.8978  -44.4420  -56.7460 H         1 UNK         0.0680 
     73 H73        32.2269  -44.6191  -55.1548 H         1 UNK         0.0680 
     74 H74        32.8918  -40.9915  -53.6791 H         1 UNK         0.0650 
     75 H75        33.6432  -42.5153  -53.2846 H         1 UNK         0.0650 
     76 H76        32.3016  -42.8521  -51.3066 H         1 UNK         0.1397 
     77 H77        28.1075  -43.6314  -51.6970 H         1 UNK         0.1363 
     78 H78        30.3602  -42.3152  -55.0912 H         1 UNK         0.1355 
     79 H79        27.2893  -42.2136  -54.2869 H         1 UNK         0.0707 
     80 H80        27.1770  -43.9156  -53.9027 H         1 UNK         0.0707 
     81 H81        29.7015  -45.1926  -55.2573 H         1 UNK         0.1034 
     82 H82        28.1747  -45.9596  -55.6138 H         1 UNK         0.1034 
     83 H83        30.1312  -44.8775  -57.6977 H         1 UNK         0.0482 
     84 H84        29.2017  -48.0515  -58.5964 H         1 UNK         0.3460 
     85 H85        30.6312  -48.8236  -57.9573 H         1 UNK         0.3460 
     86 H86        27.4701  -46.0358  -58.0344 H         1 UNK         0.2989 
     87 H87        26.7873  -44.8988  -60.6605 H         1 UNK         0.0559 
     88 H88        28.2962  -45.5003  -62.5168 H         1 UNK         0.0848 
     89 H89        26.8152  -46.4315  -62.6495 H         1 UNK         0.0848 
     90 H90        28.2846  -47.1907  -62.0385 H         1 UNK         0.0848 
     91 H91        25.4193  -46.4446  -59.8658 H         1 UNK         0.3144 
     92 H92        24.6700  -48.1300  -58.6868 H         1 UNK         0.0727 
     93 H93        25.5044  -50.5355  -60.4064 H         1 UNK         0.0790 
     94 H94        24.4281  -49.2426  -60.9156 H         1 UNK         0.0790 
     95 H95        23.9381  -50.3231  -59.6214 H         1 UNK         0.0790 
     96 H96        25.9160  -50.6102  -57.9673 H         1 UNK         0.3215 
     97 H97        26.2503  -50.9709  -55.7181 H         1 UNK         0.0863 
     98 H98        28.7059  -51.1269  -55.2191 H         1 UNK         0.0808 
     99 H99        28.9508  -49.5491  -55.9668 H         1 UNK         0.0808 
    100 H100       28.4086  -50.9057  -56.9366 H         1 UNK         0.0808 
    101 H101       27.5756  -49.0549  -53.9454 H         1 UNK         0.3118 
    102 H102       24.8933  -48.1485  -52.0978 H         1 UNK         0.0546 
    103 H103       26.0009  -50.8582  -51.1856 H         1 UNK         0.0828 
    104 H104       24.3026  -50.4411  -51.3585 H         1 UNK         0.0828 
    105 H105       25.2726  -49.6427  -50.1347 H         1 UNK         0.0828 
    106 H106       27.6347  -49.0174  -51.4141 H         1 UNK         0.3005 
    107 H107       29.0946  -45.9649  -52.2342 H         1 UNK         0.1257 
    108 H108       28.4594  -46.8572  -49.3660 H         1 UNK         0.0775 
    109 H109       27.9990  -45.3139  -50.0202 H         1 UNK         0.0775 
    110 H110       29.1856  -43.3293  -49.4346 H         1 UNK         0.0840 
    111 H111       30.9090  -43.1113  -49.3203 H         1 UNK         0.0840 
    112 H112       30.1767  -48.0964  -50.7747 H         1 UNK         0.2987 
    113 H113       31.8570  -49.2563  -52.0012 H         1 UNK         0.0785 
    114 H114       29.9684  -50.7043  -51.1452 H         1 UNK         0.0798 
    115 H115       31.1135  -51.6730  -52.0518 H         1 UNK         0.0798 
    116 H116       29.5866  -51.1971  -52.7902 H         1 UNK         0.0798 
    117 H117       31.0915  -49.3446  -54.7394 H         1 UNK         0.3079 
    118 H118       34.0052  -51.2169  -55.7817 H         1 UNK         0.0794 
    119 H119       32.3621  -51.4418  -57.5858 H         1 UNK         0.0786 
    120 H120       31.1534  -50.5342  -56.6863 H         1 UNK         0.0786 
    121 H121       31.6597  -52.1243  -56.1299 H         1 UNK         0.0786 
    122 H122       33.1624  -48.4336  -55.7778 H         1 UNK         0.3032 
    123 H123       35.6585  -47.5846  -58.0156 H         1 UNK         0.1094 
    124 H124       32.7721  -47.4669  -59.0447 H         1 UNK         0.0794 
    125 H125       34.0790  -46.3930  -59.5387 H         1 UNK         0.0794 
    126 H126       34.1570  -48.1056  -59.9173 H         1 UNK         0.0794 
    127 H127       33.1736  -46.4953  -56.7482 H         1 UNK         0.3016 
@<TRIPOS>BOND
     1    1    2 1    
     2    1   67 1    
     3    1   68 1    
     4    1   69 1    
     5    2    3 2    
     6    2    4 am   BACKBONE|DICT|INTERRES
     7    4    5 1    
     8    4   70 1    
     9    5    6 1    
    10    5   65 1    
    11    5   71 1    
    12    6    7 1    
    13    6   72 1    
    14    6   73 1    
    15    7    8 1    
    16    8    9 1    
    17    8   74 1    
    18    8   75 1    
    19    9   10 ar   
    20    9   14 ar   
    21   10   11 ar   
    22   10   76 1    
    23   11   12 ar   
    24   11   48 1    
    25   12   13 ar   
    26   12   77 1    
    27   13   14 ar   
    28   13   15 1    
    29   14   78 1    
    30   15   16 1    
    31   15   79 1    
    32   15   80 1    
    33   16   17 1    
    34   17   18 1    
    35   17   81 1    
    36   17   82 1    
    37   18   19 1    
    38   18   22 1    
    39   18   83 1    
    40   19   20 am   BACKBONE|DICT|INTERRES
    41   19   21 2    
    42   20   84 1    
    43   20   85 1    
    44   22   23 am   BACKBONE|DICT|INTERRES
    45   22   86 1    
    46   23   24 2    
    47   23   25 1    
    48   25   26 1    
    49   25   27 1    
    50   25   87 1    
    51   26   88 1    
    52   26   89 1    
    53   26   90 1    
    54   27   28 am   BACKBONE|DICT|INTERRES
    55   27   91 1    
    56   28   29 2    
    57   28   30 1    
    58   30   31 1    
    59   30   32 1    
    60   30   92 1    
    61   31   93 1    
    62   31   94 1    
    63   31   95 1    
    64   32   33 am   BACKBONE|DICT|INTERRES
    65   32   96 1    
    66   33   34 2    
    67   33   35 1    
    68   35   36 1    
    69   35   37 1    
    70   35   97 1    
    71   36   98 1    
    72   36   99 1    
    73   36  100 1    
    74   37   38 am   BACKBONE|DICT|INTERRES
    75   37  101 1    
    76   38   39 2    
    77   38   40 1    
    78   40   41 1    
    79   40   42 1    
    80   40  102 1    
    81   41  103 1    
    82   41  104 1    
    83   41  105 1    
    84   42   43 am   BACKBONE|DICT|INTERRES
    85   42  106 1    
    86   43   44 2    
    87   43   45 1    
    88   45   46 1    
    89   45   49 1    
    90   45  107 1    
    91   46   47 1    
    92   46  108 1    
    93   46  109 1    
    94   47   48 1    
    95   48  110 1    
    96   48  111 1    
    97   49   50 am   BACKBONE|DICT|INTERRES
    98   49  112 1    
    99   50   51 2    
   100   50   52 1    
   101   52   53 1    
   102   52   54 1    
   103   52  113 1    
   104   53  114 1    
   105   53  115 1    
   106   53  116 1    
   107   54   55 am   BACKBONE|DICT|INTERRES
   108   54  117 1    
   109   55   56 2    
   110   55   57 1    
   111   57   58 1    
   112   57   59 1    
   113   57  118 1    
   114   58  119 1    
   115   58  120 1    
   116   58  121 1    
   117   59   60 am   BACKBONE|DICT|INTERRES
   118   59  122 1    
   119   60   61 2    
   120   60   62 1    
   121   62   63 1    
   122   62   64 1    
   123   62  123 1    
   124   63  124 1    
   125   63  125 1    
   126   63  126 1    
   127   64   65 am   BACKBONE|DICT|INTERRES
   128   64  127 1    
   129   65   66 2    
@<TRIPOS>SUBSTRUCTURE
     1 UNK         1 GROUP             0       ****    0 ROOT    
