@<TRIPOS>MOLECULE
3R134
127   129    1
SMALL
USER_CHARGES


@<TRIPOS>ATOM
      1 CA         38.2154  -45.3729  -55.3930 C.3       0 UNK        -0.1968 
      2 C          36.8643  -46.0354  -55.6189 C.2       0 UNK         0.4852 
      3 O          36.7826  -47.0203  -56.3539 O.2       0 UNK        -0.5359 
      4 N          35.8060  -45.4998  -54.9957 N.am      1 UNK        -0.4300 
      5 CA         34.4349  -46.0200  -55.0646 C.3       1 UNK         0.0863 
      6 C6         33.4022  -44.9765  -54.5727 C.3       11 UNK        -0.0953 
      7 S7         33.6756  -44.3980  -52.8570 S.3       11 UNK        -0.2369 
      8 C8         32.5387  -42.9797  -52.7526 C.3       11 UNK         0.0226 
      9 C9         31.1118  -43.3841  -53.0856 C.ar      11 UNK        -0.0699 
     10 C10        30.3290  -44.0624  -52.1456 C.ar      11 UNK        -0.0804 
     11 C11        29.0414  -44.4927  -52.4792 C.ar      11 UNK        -0.0871 
     12 C12        28.5375  -44.2252  -53.7556 C.ar      11 UNK        -0.1008 
     13 C13        29.3128  -43.5533  -54.7028 C.ar      11 UNK        -0.0735 
     14 C14        30.5939  -43.1209  -54.3567 C.ar      11 UNK        -0.0945 
     15 C15        28.8039  -43.3633  -56.1220 C.3       11 UNK         0.0169 
     16 S16        27.8305  -41.8377  -56.3251 S.3       11 UNK        -0.2669 
     17 C17        26.1573  -42.3289  -55.7621 C.3       11 UNK        -0.0850 
     18 CA         25.2228  -42.8587  -56.8855 C.3       10 UNK         0.0855 
     19 C          24.8467  -41.7445  -57.9073 C.2       10 UNK         0.5543 
     20 N          23.8951  -40.8882  -57.5606 N.am      10 UNK        -0.7343 
     21 O          25.4234  -41.6290  -58.9876 O.2       10 UNK        -0.5027 
     22 N          25.7722  -44.0806  -57.4907 N.am      10 UNK        -0.4495 
     23 C          25.1834  -44.8377  -58.4232 C.2       10 UNK         0.4903 
     24 O          24.0370  -44.6651  -58.8388 O.2       10 UNK        -0.4860 
     25 CA         26.0321  -45.9931  -58.9775 C.3       9 UNK         0.0227 
     26 CB         27.3221  -45.4774  -59.6393 C.3       9 UNK        -0.1964 
     27 N          26.3554  -46.9946  -57.9563 N.am      9 UNK        -0.4231 
     28 C          25.4671  -47.8532  -57.4346 C.2       9 UNK         0.5014 
     29 O          24.2680  -47.8538  -57.7220 O.2       9 UNK        -0.5270 
     30 CA         26.0173  -48.9038  -56.4470 C.3       8 UNK         0.0284 
     31 CB         24.9851  -49.9930  -56.0881 C.3       8 UNK        -0.1977 
     32 N          27.2708  -49.5268  -56.8889 N.am      8 UNK        -0.4342 
     33 C          27.5364  -50.1367  -58.0545 C.2       8 UNK         0.5039 
     34 O          26.7158  -50.2952  -58.9605 O.2       8 UNK        -0.5547 
     35 CA         28.9822  -50.6494  -58.2194 C.3       7 UNK         0.0281 
     36 CB         29.2918  -51.1694  -59.6399 C.3       7 UNK        -0.1963 
     37 N          29.9715  -49.6527  -57.7858 N.am      7 UNK        -0.4444 
     38 C          30.1926  -48.4370  -58.3108 C.2       7 UNK         0.5104 
     39 O          29.6596  -48.0193  -59.3384 O.2       7 UNK        -0.5100 
     40 CA         31.1562  -47.5294  -57.5159 C.3       6 UNK         0.0396 
     41 CB         31.1268  -46.0581  -57.9799 C.3       6 UNK        -0.1801 
     42 N          30.9401  -47.6160  -56.0662 N.am      6 UNK        -0.4747 
     43 C          29.8016  -47.3525  -55.4020 C.2       6 UNK         0.5012 
     44 O          28.7720  -46.9454  -55.9470 O.2       6 UNK        -0.5003 
     45 CA         29.8261  -47.6608  -53.8865 C.3       5 UNK         0.0782 
     46 C46        28.4403  -47.5315  -53.1864 C.3       11 UNK        -0.0868 
     47 S47        28.6499  -47.0487  -51.4393 S.3       11 UNK        -0.2515 
     48 C48        28.2028  -45.2788  -51.4791 C.3       11 UNK         0.0199 
     49 N          30.4618  -48.9586  -53.6089 N.am      5 UNK        -0.4607 
     50 C          30.0402  -50.1507  -54.0650 C.2       4 UNK         0.5031 
     51 O          29.0813  -50.2816  -54.8253 O.2       4 UNK        -0.5119 
     52 CA         30.8150  -51.4167  -53.6562 C.3       4 UNK         0.0263 
     53 CB         31.6337  -51.9402  -54.8484 C.3       4 UNK        -0.1967 
     54 N          31.7121  -51.2159  -52.5212 N.am      4 UNK        -0.4237 
     55 C          31.3352  -51.0173  -51.2498 C.2       3 UNK         0.4908 
     56 O          30.1728  -51.1131  -50.8561 O.2       3 UNK        -0.5102 
     57 CA         32.4442  -50.6218  -50.2526 C.3       3 UNK         0.0241 
     58 CB         32.8114  -51.8137  -49.3532 C.3       3 UNK        -0.1971 
     59 N          33.6621  -50.1106  -50.8982 N.am      3 UNK        -0.4139 
     60 C          33.7252  -48.9939  -51.6385 C.2       2 UNK         0.5016 
     61 O          32.7685  -48.2278  -51.7788 O.2       2 UNK        -0.5319 
     62 CA         35.0653  -48.7298  -52.3579 C.3       2 UNK         0.0286 
     63 CB         35.5670  -49.9712  -53.1304 C.3       2 UNK        -0.1963 
     64 N          35.0324  -47.5658  -53.2527 N.am      2 UNK        -0.4790 
     65 C          34.2646  -47.3732  -54.3389 C.2       1 UNK         0.5024 
     66 O          33.4557  -48.1944  -54.7792 O.2       1 UNK        -0.4888 
     67 H67        38.9127  -46.0845  -54.9515 H         1 UNK         0.0892 
     68 H68        38.6299  -45.0333  -56.3418 H         1 UNK         0.0892 
     69 H69        38.1426  -44.5125  -54.7279 H         1 UNK         0.0892 
     70 H70        35.9299  -44.6867  -54.4085 H         1 UNK         0.3107 
     71 H71        34.2184  -46.2122  -56.1180 H         1 UNK         0.0773 
     72 H72        33.4244  -44.1086  -55.2335 H         1 UNK         0.0680 
     73 H73        32.3923  -45.3829  -54.6503 H         1 UNK         0.0680 
     74 H74        32.5781  -42.5649  -51.7445 H         1 UNK         0.0650 
     75 H75        32.8846  -42.1920  -53.4237 H         1 UNK         0.0650 
     76 H76        30.7350  -44.2846  -51.1680 H         1 UNK         0.1397 
     77 H77        27.5542  -44.5807  -54.0257 H         1 UNK         0.1363 
     78 H78        31.2038  -42.6129  -55.0912 H         1 UNK         0.1355 
     79 H79        29.6501  -43.3195  -56.8093 H         1 UNK         0.0707 
     80 H80        28.2277  -44.2365  -56.4236 H         1 UNK         0.0707 
     81 H81        25.7026  -41.4617  -55.2796 H         1 UNK         0.1034 
     82 H82        26.2373  -43.0721  -54.9713 H         1 UNK         0.1034 
     83 H83        24.2897  -43.1662  -56.4091 H         1 UNK         0.0482 
     84 H84        23.4165  -40.9666  -56.6767 H         1 UNK         0.3460 
     85 H85        23.6436  -40.1512  -58.2011 H         1 UNK         0.3460 
     86 H86        26.7228  -44.2969  -57.2397 H         1 UNK         0.2989 
     87 H87        25.4438  -46.4857  -59.7548 H         1 UNK         0.0559 
     88 H88        27.8276  -46.2738  -60.1851 H         1 UNK         0.0848 
     89 H89        28.0270  -45.0725  -58.9137 H         1 UNK         0.0848 
     90 H90        27.1036  -44.6864  -60.3583 H         1 UNK         0.0848 
     91 H91        27.3153  -47.0499  -57.6342 H         1 UNK         0.3144 
     92 H92        26.2560  -48.3608  -55.5313 H         1 UNK         0.0727 
     93 H93        25.3867  -50.6919  -55.3543 H         1 UNK         0.0790 
     94 H94        24.6829  -50.5649  -56.9662 H         1 UNK         0.0790 
     95 H95        24.0843  -49.5543  -55.6570 H         1 UNK         0.0790 
     96 H96        28.0165  -49.5221  -56.1960 H         1 UNK         0.3215 
     97 H97        29.0801  -51.4940  -57.5353 H         1 UNK         0.0863 
     98 H98        30.3168  -51.5319  -59.7158 H         1 UNK         0.0808 
     99 H99        29.1509  -50.3972  -60.3966 H         1 UNK         0.0808 
    100 H100       28.6344  -51.9996  -59.9009 H         1 UNK         0.0808 
    101 H101       30.4403  -49.8634  -56.9164 H         1 UNK         0.3118 
    102 H102       32.1607  -47.9135  -57.6994 H         1 UNK         0.0546 
    103 H103       30.1371  -45.6185  -57.8635 H         1 UNK         0.0828 
    104 H104       31.3970  -45.9746  -59.0332 H         1 UNK         0.0828 
    105 H105       31.8319  -45.4488  -57.4150 H         1 UNK         0.0828 
    106 H106       31.7374  -47.9536  -55.5295 H         1 UNK         0.3005 
    107 H107       30.4910  -46.9001  -53.4718 H         1 UNK         0.1257 
    108 H108       27.7851  -46.8097  -53.6699 H         1 UNK         0.0775 
    109 H109       27.8873  -48.4707  -53.2237 H         1 UNK         0.0775 
    110 H110       27.1411  -45.1825  -51.7118 H         1 UNK         0.0840 
    111 H111       28.3325  -44.8583  -50.4808 H         1 UNK         0.0840 
    112 H112       31.2774  -48.9159  -53.0053 H         1 UNK         0.2987 
    113 H113       30.0790  -52.1748  -53.3803 H         1 UNK         0.0785 
    114 H114       32.1499  -52.8675  -54.5991 H         1 UNK         0.0798 
    115 H115       32.3818  -51.2157  -55.1744 H         1 UNK         0.0798 
    116 H116       30.9898  -52.1531  -55.7029 H         1 UNK         0.0798 
    117 H117       32.6933  -51.1284  -52.7375 H         1 UNK         0.3079 
    118 H118       32.0412  -49.8256  -49.6229 H         1 UNK         0.0794 
    119 H119       31.9313  -52.1969  -48.8345 H         1 UNK         0.0786 
    120 H120       33.5347  -51.5275  -48.5893 H         1 UNK         0.0786 
    121 H121       33.2355  -52.6384  -49.9275 H         1 UNK         0.0786 
    122 H122       34.4908  -50.6812  -50.8077 H         1 UNK         0.3032 
    123 H123       35.7925  -48.4949  -51.5787 H         1 UNK         0.1094 
    124 H124       35.7975  -50.7999  -52.4605 H         1 UNK         0.0794 
    125 H125       34.8311  -50.3276  -53.8521 H         1 UNK         0.0794 
    126 H126       36.4827  -49.7481  -53.6786 H         1 UNK         0.0794 
    127 H127       35.6184  -46.7921  -52.9728 H         1 UNK         0.3016 
@<TRIPOS>BOND
     1    1    2 1    
     2    1   67 1    
     3    1   68 1    
     4    1   69 1    
     5    2    3 2    
     6    2    4 am   BACKBONE|DICT|INTERRES
     7    4    5 1    
     8    4   70 1    
     9    5    6 1    
    10    5   65 1    
    11    5   71 1    
    12    6    7 1    
    13    6   72 1    
    14    6   73 1    
    15    7    8 1    
    16    8    9 1    
    17    8   74 1    
    18    8   75 1    
    19    9   10 ar   
    20    9   14 ar   
    21   10   11 ar   
    22   10   76 1    
    23   11   12 ar   
    24   11   48 1    
    25   12   13 ar   
    26   12   77 1    
    27   13   14 ar   
    28   13   15 1    
    29   14   78 1    
    30   15   16 1    
    31   15   79 1    
    32   15   80 1    
    33   16   17 1    
    34   17   18 1    
    35   17   81 1    
    36   17   82 1    
    37   18   19 1    
    38   18   22 1    
    39   18   83 1    
    40   19   20 am   BACKBONE|DICT|INTERRES
    41   19   21 2    
    42   20   84 1    
    43   20   85 1    
    44   22   23 am   BACKBONE|DICT|INTERRES
    45   22   86 1    
    46   23   24 2    
    47   23   25 1    
    48   25   26 1    
    49   25   27 1    
    50   25   87 1    
    51   26   88 1    
    52   26   89 1    
    53   26   90 1    
    54   27   28 am   BACKBONE|DICT|INTERRES
    55   27   91 1    
    56   28   29 2    
    57   28   30 1    
    58   30   31 1    
    59   30   32 1    
    60   30   92 1    
    61   31   93 1    
    62   31   94 1    
    63   31   95 1    
    64   32   33 am   BACKBONE|DICT|INTERRES
    65   32   96 1    
    66   33   34 2    
    67   33   35 1    
    68   35   36 1    
    69   35   37 1    
    70   35   97 1    
    71   36   98 1    
    72   36   99 1    
    73   36  100 1    
    74   37   38 am   BACKBONE|DICT|INTERRES
    75   37  101 1    
    76   38   39 2    
    77   38   40 1    
    78   40   41 1    
    79   40   42 1    
    80   40  102 1    
    81   41  103 1    
    82   41  104 1    
    83   41  105 1    
    84   42   43 am   BACKBONE|DICT|INTERRES
    85   42  106 1    
    86   43   44 2    
    87   43   45 1    
    88   45   46 1    
    89   45   49 1    
    90   45  107 1    
    91   46   47 1    
    92   46  108 1    
    93   46  109 1    
    94   47   48 1    
    95   48  110 1    
    96   48  111 1    
    97   49   50 am   BACKBONE|DICT|INTERRES
    98   49  112 1    
    99   50   51 2    
   100   50   52 1    
   101   52   53 1    
   102   52   54 1    
   103   52  113 1    
   104   53  114 1    
   105   53  115 1    
   106   53  116 1    
   107   54   55 am   BACKBONE|DICT|INTERRES
   108   54  117 1    
   109   55   56 2    
   110   55   57 1    
   111   57   58 1    
   112   57   59 1    
   113   57  118 1    
   114   58  119 1    
   115   58  120 1    
   116   58  121 1    
   117   59   60 am   BACKBONE|DICT|INTERRES
   118   59  122 1    
   119   60   61 2    
   120   60   62 1    
   121   62   63 1    
   122   62   64 1    
   123   62  123 1    
   124   63  124 1    
   125   63  125 1    
   126   63  126 1    
   127   64   65 am   BACKBONE|DICT|INTERRES
   128   64  127 1    
   129   65   66 2    
@<TRIPOS>SUBSTRUCTURE
     1 UNK         1 GROUP             0       ****    0 ROOT    
