@<TRIPOS>MOLECULE
3R134
127   129    1
SMALL
USER_CHARGES


@<TRIPOS>ATOM
      1 CA         37.7825  -45.8186  -48.0376 C.3       0 UNK        -0.1968 
      2 C          36.5745  -45.6318  -48.9441 C.2       0 UNK         0.4852 
      3 O          35.6647  -44.8786  -48.5950 O.2       0 UNK        -0.5359 
      4 N          36.5650  -46.3133  -50.0998 N.am      1 UNK        -0.4300 
      5 CA         35.5026  -46.2918  -51.1152 C.3       1 UNK         0.0863 
      6 C6         35.3547  -44.9053  -51.8015 C.3       11 UNK        -0.0953 
      7 S7         34.6688  -45.0154  -53.4908 S.3       11 UNK        -0.2369 
      8 C8         33.2201  -43.9174  -53.3261 C.3       11 UNK         0.0226 
      9 C9         32.3947  -43.7209  -54.5979 C.ar      11 UNK        -0.0699 
     10 C10        32.9338  -43.8780  -55.8821 C.ar      11 UNK        -0.0804 
     11 C11        32.1515  -43.6422  -57.0166 C.ar      11 UNK        -0.0871 
     12 C12        30.8266  -43.2277  -56.8657 C.ar      11 UNK        -0.1008 
     13 C13        30.2685  -43.0807  -55.5944 C.ar      11 UNK        -0.0735 
     14 C14        31.0594  -43.3249  -54.4681 C.ar      11 UNK        -0.0945 
     15 C15        28.8193  -42.6424  -55.4338 C.3       11 UNK         0.0169 
     16 S16        27.6594  -43.9953  -55.8103 S.3       11 UNK        -0.2669 
     17 C17        27.5340  -43.8906  -57.6313 C.3       11 UNK        -0.0850 
     18 CA         26.0901  -44.1270  -58.1371 C.3       10 UNK         0.0855 
     19 C          25.9910  -43.8841  -59.6669 C.2       10 UNK         0.5543 
     20 N          25.7206  -42.6536  -60.0800 N.am      10 UNK        -0.7343 
     21 O          26.1990  -44.7829  -60.4791 O.2       10 UNK        -0.5027 
     22 N          25.6060  -45.4583  -57.7549 N.am      10 UNK        -0.4495 
     23 C          24.3171  -45.8202  -57.7166 C.2       10 UNK         0.4903 
     24 O          23.3869  -45.0651  -58.0027 O.2       10 UNK        -0.4860 
     25 CA         23.9933  -47.2572  -57.2664 C.3       9 UNK         0.0227 
     26 CB         23.5461  -48.1094  -58.4637 C.3       9 UNK        -0.1964 
     27 N          25.1156  -47.9029  -56.5742 N.am      9 UNK        -0.4231 
     28 C          25.4582  -47.6343  -55.3040 C.2       9 UNK         0.5014 
     29 O          24.7919  -46.9000  -54.5717 O.2       9 UNK        -0.5270 
     30 CA         26.7716  -48.2298  -54.7571 C.3       8 UNK         0.0284 
     31 CB         26.6694  -48.6237  -53.2679 C.3       8 UNK        -0.1977 
     32 N          27.3386  -49.3224  -55.5526 N.am      8 UNK        -0.4342 
     33 C          26.8242  -50.5396  -55.7732 C.2       8 UNK         0.5039 
     34 O          25.7654  -50.9439  -55.2894 O.2       8 UNK        -0.5547 
     35 CA         27.6307  -51.4278  -56.7428 C.3       7 UNK         0.0281 
     36 CB         26.9056  -52.7415  -57.1059 C.3       7 UNK        -0.1963 
     37 N          28.0287  -50.6976  -57.9563 N.am      7 UNK        -0.4444 
     38 C          27.2137  -50.0756  -58.8242 C.2       7 UNK         0.5104 
     39 O          25.9868  -50.0956  -58.7420 O.2       7 UNK        -0.5100 
     40 CA         27.8929  -49.2630  -59.9460 C.3       6 UNK         0.0396 
     41 CB         26.9311  -48.2779  -60.6437 C.3       6 UNK        -0.1801 
     42 N          29.1039  -48.5681  -59.4914 N.am      6 UNK        -0.4747 
     43 C          29.1899  -47.6527  -58.5129 C.2       6 UNK         0.5012 
     44 O          28.2217  -47.2170  -57.8822 O.2       6 UNK        -0.5003 
     45 CA         30.6195  -47.1710  -58.1858 C.3       5 UNK         0.0782 
     46 C46        31.0308  -45.9877  -59.0951 C.3       11 UNK        -0.0868 
     47 S47        32.7987  -45.5659  -58.9113 S.3       11 UNK        -0.2515 
     48 C48        32.7425  -43.8166  -58.4075 C.3       11 UNK         0.0199 
     49 N          30.8242  -46.8832  -56.7608 N.am      5 UNK        -0.4607 
     50 C          30.6613  -47.7692  -55.7702 C.2       4 UNK         0.5031 
     51 O          30.1711  -48.8924  -55.9251 O.2       4 UNK        -0.5119 
     52 CA         31.1364  -47.3288  -54.3737 C.3       4 UNK         0.0263 
     53 CB         30.0446  -46.5441  -53.6315 C.3       4 UNK        -0.1967 
     54 N          31.5424  -48.4675  -53.5469 N.am      4 UNK        -0.4237 
     55 C          32.5810  -49.2739  -53.8001 C.2       3 UNK         0.4908 
     56 O          33.3872  -49.0923  -54.7147 O.2       3 UNK        -0.5102 
     57 CA         32.7664  -50.4552  -52.8316 C.3       3 UNK         0.0241 
     58 CB         33.7778  -51.4957  -53.3488 C.3       3 UNK        -0.1971 
     59 N          33.2207  -49.9525  -51.5377 N.am      3 UNK        -0.4139 
     60 C          32.4243  -49.4955  -50.5620 C.2       2 UNK         0.5016 
     61 O          31.1949  -49.5621  -50.5912 O.2       2 UNK        -0.5319 
     62 CA         33.1271  -48.7911  -49.3879 C.3       2 UNK         0.0286 
     63 CB         33.5817  -49.8089  -48.3296 C.3       2 UNK        -0.1963 
     64 N          34.2775  -47.9973  -49.8373 N.am      2 UNK        -0.4790 
     65 C          34.1753  -46.8872  -50.5865 C.2       1 UNK         0.5024 
     66 O          33.0956  -46.3628  -50.8629 O.2       1 UNK        -0.4888 
     67 H67        37.4693  -46.2169  -47.0729 H         1 UNK         0.0892 
     68 H68        38.5139  -46.5038  -48.4658 H         1 UNK         0.0892 
     69 H69        38.2749  -44.8614  -47.8675 H         1 UNK         0.0892 
     70 H70        37.3526  -46.9089  -50.3178 H         1 UNK         0.3107 
     71 H71        35.8427  -46.9932  -51.8790 H         1 UNK         0.0773 
     72 H72        34.7639  -44.2251  -51.1852 H         1 UNK         0.0680 
     73 H73        36.3345  -44.4352  -51.8984 H         1 UNK         0.0680 
     74 H74        32.5804  -44.3174  -52.5381 H         1 UNK         0.0650 
     75 H75        33.5604  -42.9383  -52.9866 H         1 UNK         0.0650 
     76 H76        33.9651  -44.1750  -56.0104 H         1 UNK         0.1397 
     77 H77        30.2280  -43.0221  -57.7409 H         1 UNK         0.1363 
     78 H78        30.6342  -43.1985  -53.4816 H         1 UNK         0.1355 
     79 H79        28.6149  -41.7758  -56.0639 H         1 UNK         0.0707 
     80 H80        28.6384  -42.3147  -54.4089 H         1 UNK         0.0707 
     81 H81        28.2200  -44.6139  -58.0716 H         1 UNK         0.1034 
     82 H82        27.8777  -42.9077  -57.9570 H         1 UNK         0.1034 
     83 H83        25.4461  -43.3947  -57.6451 H         1 UNK         0.0482 
     84 H84        25.5536  -41.9062  -59.4241 H         1 UNK         0.3460 
     85 H85        25.6672  -42.4712  -61.0701 H         1 UNK         0.3460 
     86 H86        26.3229  -46.1444  -57.5524 H         1 UNK         0.2989 
     87 H87        23.1513  -47.2004  -56.5733 H         1 UNK         0.0559 
     88 H88        23.3418  -49.1387  -58.1685 H         1 UNK         0.0848 
     89 H89        24.2980  -48.1275  -59.2516 H         1 UNK         0.0848 
     90 H90        22.6312  -47.7100  -58.9032 H         1 UNK         0.0848 
     91 H91        25.6890  -48.5372  -57.1176 H         1 UNK         0.3144 
     92 H92        27.4952  -47.4182  -54.8364 H         1 UNK         0.0727 
     93 H93        27.6078  -49.0380  -52.8994 H         1 UNK         0.0790 
     94 H94        25.8874  -49.3647  -53.0998 H         1 UNK         0.0790 
     95 H95        26.4336  -47.7574  -52.6487 H         1 UNK         0.0790 
     96 H96        28.2398  -49.1136  -55.9778 H         1 UNK         0.3215 
     97 H97        28.5523  -51.6909  -56.2206 H         1 UNK         0.0863 
     98 H98        27.5097  -53.3576  -57.7716 H         1 UNK         0.0808 
     99 H99        25.9494  -52.5554  -57.5961 H         1 UNK         0.0808 
    100 H100       26.7018  -53.3333  -56.2128 H         1 UNK         0.0808 
    101 H101       29.0242  -50.5903  -58.0946 H         1 UNK         0.3118 
    102 H102       28.2152  -49.9909  -60.6919 H         1 UNK         0.0546 
    103 H103       26.5388  -47.5337  -59.9505 H         1 UNK         0.0828 
    104 H104       26.0782  -48.8011  -61.0775 H         1 UNK         0.0828 
    105 H105       27.4277  -47.7446  -61.4540 H         1 UNK         0.0828 
    106 H106       29.9567  -48.8546  -59.9535 H         1 UNK         0.3005 
    107 H107       31.2903  -48.0039  -58.4092 H         1 UNK         0.1257 
    108 H108       30.8697  -46.2381  -60.1456 H         1 UNK         0.0775 
    109 H109       30.4086  -45.1149  -58.9005 H         1 UNK         0.0775 
    110 H110       33.7561  -43.4133  -58.4238 H         1 UNK         0.0840 
    111 H111       32.1785  -43.2438  -59.1455 H         1 UNK         0.0840 
    112 H112       31.1975  -45.9680  -56.5492 H         1 UNK         0.2987 
    113 H113       32.0061  -46.6807  -54.5017 H         1 UNK         0.0785 
    114 H114       30.4542  -46.0419  -52.7547 H         1 UNK         0.0798 
    115 H115       29.2382  -47.1929  -53.2938 H         1 UNK         0.0798 
    116 H116       29.6030  -45.7771  -54.2681 H         1 UNK         0.0798 
    117 H117       30.9577  -48.6849  -52.7505 H         1 UNK         0.3079 
    118 H118       31.8010  -50.9539  -52.7186 H         1 UNK         0.0794 
    119 H119       33.4694  -51.8887  -54.3185 H         1 UNK         0.0786 
    120 H120       33.8569  -52.3427  -52.6670 H         1 UNK         0.0786 
    121 H121       34.7747  -51.0702  -53.4710 H         1 UNK         0.0786 
    122 H122       34.2159  -49.8207  -51.4338 H         1 UNK         0.3032 
    123 H123       32.4023  -48.1156  -48.9271 H         1 UNK         0.1094 
    124 H124       32.7370  -50.3980  -47.9694 H         1 UNK         0.0794 
    125 H125       34.3201  -50.5071  -48.7260 H         1 UNK         0.0794 
    126 H126       34.0197  -49.3115  -47.4640 H         1 UNK         0.0794 
    127 H127       35.1975  -48.3485  -49.6127 H         1 UNK         0.3016 
@<TRIPOS>BOND
     1    1    2 1    
     2    1   67 1    
     3    1   68 1    
     4    1   69 1    
     5    2    3 2    
     6    2    4 am   BACKBONE|DICT|INTERRES
     7    4    5 1    
     8    4   70 1    
     9    5    6 1    
    10    5   65 1    
    11    5   71 1    
    12    6    7 1    
    13    6   72 1    
    14    6   73 1    
    15    7    8 1    
    16    8    9 1    
    17    8   74 1    
    18    8   75 1    
    19    9   10 ar   
    20    9   14 ar   
    21   10   11 ar   
    22   10   76 1    
    23   11   12 ar   
    24   11   48 1    
    25   12   13 ar   
    26   12   77 1    
    27   13   14 ar   
    28   13   15 1    
    29   14   78 1    
    30   15   16 1    
    31   15   79 1    
    32   15   80 1    
    33   16   17 1    
    34   17   18 1    
    35   17   81 1    
    36   17   82 1    
    37   18   19 1    
    38   18   22 1    
    39   18   83 1    
    40   19   20 am   BACKBONE|DICT|INTERRES
    41   19   21 2    
    42   20   84 1    
    43   20   85 1    
    44   22   23 am   BACKBONE|DICT|INTERRES
    45   22   86 1    
    46   23   24 2    
    47   23   25 1    
    48   25   26 1    
    49   25   27 1    
    50   25   87 1    
    51   26   88 1    
    52   26   89 1    
    53   26   90 1    
    54   27   28 am   BACKBONE|DICT|INTERRES
    55   27   91 1    
    56   28   29 2    
    57   28   30 1    
    58   30   31 1    
    59   30   32 1    
    60   30   92 1    
    61   31   93 1    
    62   31   94 1    
    63   31   95 1    
    64   32   33 am   BACKBONE|DICT|INTERRES
    65   32   96 1    
    66   33   34 2    
    67   33   35 1    
    68   35   36 1    
    69   35   37 1    
    70   35   97 1    
    71   36   98 1    
    72   36   99 1    
    73   36  100 1    
    74   37   38 am   BACKBONE|DICT|INTERRES
    75   37  101 1    
    76   38   39 2    
    77   38   40 1    
    78   40   41 1    
    79   40   42 1    
    80   40  102 1    
    81   41  103 1    
    82   41  104 1    
    83   41  105 1    
    84   42   43 am   BACKBONE|DICT|INTERRES
    85   42  106 1    
    86   43   44 2    
    87   43   45 1    
    88   45   46 1    
    89   45   49 1    
    90   45  107 1    
    91   46   47 1    
    92   46  108 1    
    93   46  109 1    
    94   47   48 1    
    95   48  110 1    
    96   48  111 1    
    97   49   50 am   BACKBONE|DICT|INTERRES
    98   49  112 1    
    99   50   51 2    
   100   50   52 1    
   101   52   53 1    
   102   52   54 1    
   103   52  113 1    
   104   53  114 1    
   105   53  115 1    
   106   53  116 1    
   107   54   55 am   BACKBONE|DICT|INTERRES
   108   54  117 1    
   109   55   56 2    
   110   55   57 1    
   111   57   58 1    
   112   57   59 1    
   113   57  118 1    
   114   58  119 1    
   115   58  120 1    
   116   58  121 1    
   117   59   60 am   BACKBONE|DICT|INTERRES
   118   59  122 1    
   119   60   61 2    
   120   60   62 1    
   121   62   63 1    
   122   62   64 1    
   123   62  123 1    
   124   63  124 1    
   125   63  125 1    
   126   63  126 1    
   127   64   65 am   BACKBONE|DICT|INTERRES
   128   64  127 1    
   129   65   66 2    
@<TRIPOS>SUBSTRUCTURE
     1 UNK         1 GROUP             0       ****    0 ROOT    
