@<TRIPOS>MOLECULE
3R134
127   129    1
SMALL
USER_CHARGES


@<TRIPOS>ATOM
      1 CA         33.2615  -45.4482  -46.9008 C.3       0 UNK        -0.1968 
      2 C          34.0042  -45.4124  -48.2284 C.2       0 UNK         0.4852 
      3 O          35.2189  -45.2080  -48.2424 O.2       0 UNK        -0.5359 
      4 N          33.2822  -45.6053  -49.3409 N.am      1 UNK        -0.4300 
      5 CA         33.8212  -45.6091  -50.7082 C.3       1 UNK         0.0863 
      6 C6         32.6998  -45.5534  -51.7732 C.3       11 UNK        -0.0953 
      7 S7         31.6211  -44.0942  -51.5812 S.3       11 UNK        -0.2369 
      8 C8         32.2024  -43.0133  -52.9254 C.3       11 UNK         0.0226 
      9 C9         31.6773  -43.4526  -54.2856 C.ar      11 UNK        -0.0699 
     10 C10        32.5237  -44.0789  -55.2055 C.ar      11 UNK        -0.0804 
     11 C11        32.0497  -44.4537  -56.4669 C.ar      11 UNK        -0.0871 
     12 C12        30.7158  -44.2050  -56.8024 C.ar      11 UNK        -0.1008 
     13 C13        29.8572  -43.5889  -55.8875 C.ar      11 UNK        -0.0735 
     14 C14        30.3453  -43.2085  -54.6337 C.ar      11 UNK        -0.0945 
     15 C15        28.3945  -43.3695  -56.2405 C.3       11 UNK         0.0169 
     16 S16        28.1841  -42.0284  -57.4531 S.3       11 UNK        -0.2669 
     17 C17        26.3750  -41.7398  -57.4523 C.3       11 UNK        -0.0850 
     18 CA         25.4751  -43.0034  -57.3477 C.3       10 UNK         0.0855 
     19 C          23.9699  -42.6122  -57.2674 C.2       10 UNK         0.5543 
     20 N          23.1136  -43.0577  -58.1789 N.am      10 UNK        -0.7343 
     21 O          23.5710  -41.8942  -56.3538 O.2       10 UNK        -0.5027 
     22 N          25.7920  -43.9877  -58.3974 N.am      10 UNK        -0.4495 
     23 C          25.6129  -45.3089  -58.2782 C.2       10 UNK         0.4903 
     24 O          25.1655  -45.8450  -57.2625 O.2       10 UNK        -0.4860 
     25 CA         25.9714  -46.1706  -59.5016 C.3       9 UNK         0.0227 
     26 CB         27.1709  -45.6247  -60.3051 C.3       9 UNK        -0.1964 
     27 N          26.2701  -47.5312  -59.0587 N.am      9 UNK        -0.4231 
     28 C          25.7639  -48.6543  -59.5800 C.2       9 UNK         0.5014 
     29 O          24.9976  -48.6773  -60.5448 O.2       9 UNK        -0.5270 
     30 CA         26.1855  -49.9884  -58.9371 C.3       8 UNK         0.0284 
     31 CB         27.3735  -50.6008  -59.6969 C.3       8 UNK        -0.1977 
     32 N          26.5215  -49.8900  -57.5137 N.am      8 UNK        -0.4342 
     33 C          25.6250  -49.7208  -56.5306 C.2       8 UNK         0.5039 
     34 O          24.4150  -49.5951  -56.7221 O.2       8 UNK        -0.5547 
     35 CA         26.1608  -49.7097  -55.0909 C.3       7 UNK         0.0281 
     36 CB         26.4232  -51.1433  -54.5990 C.3       7 UNK        -0.1963 
     37 N          27.3936  -48.9285  -54.9944 N.am      7 UNK        -0.4444 
     38 C          27.4649  -47.6682  -54.5445 C.2       7 UNK         0.5104 
     39 O          26.5104  -47.0569  -54.0634 O.2       7 UNK        -0.5100 
     40 CA         28.8287  -46.9581  -54.6396 C.3       6 UNK         0.0396 
     41 CB         29.5254  -46.9158  -53.2751 C.3       6 UNK        -0.1801 
     42 N          29.7404  -47.5490  -55.6213 N.am      6 UNK        -0.4747 
     43 C          29.5577  -47.4931  -56.9485 C.2       6 UNK         0.5012 
     44 O          28.6162  -46.9062  -57.4775 O.2       6 UNK        -0.5003 
     45 CA         30.5340  -48.2880  -57.8399 C.3       5 UNK         0.0782 
     46 C46        31.6216  -47.3865  -58.4745 C.3       11 UNK        -0.0868 
     47 S47        32.9744  -46.9194  -57.3375 S.3       11 UNK        -0.2515 
     48 C48        32.9901  -45.1044  -57.4697 C.3       11 UNK         0.0199 
     49 N          31.0992  -49.4697  -57.1786 N.am      5 UNK        -0.4607 
     50 C          30.3888  -50.4864  -56.6731 C.2       4 UNK         0.5031 
     51 O          29.1615  -50.5558  -56.7492 O.2       4 UNK        -0.5119 
     52 CA         31.1560  -51.5905  -55.9273 C.3       4 UNK         0.0263 
     53 CB         31.3028  -52.8302  -56.8234 C.3       4 UNK        -0.1967 
     54 N          32.4790  -51.1863  -55.4351 N.am      4 UNK        -0.4237 
     55 C          32.7026  -50.2682  -54.4844 C.2       3 UNK         0.4908 
     56 O          31.8182  -49.5949  -53.9482 O.2       3 UNK        -0.5102 
     57 CA         34.1661  -50.0512  -54.0891 C.3       3 UNK         0.0241 
     58 CB         34.8346  -48.9982  -54.9898 C.3       3 UNK        -0.1971 
     59 N          34.2243  -49.6152  -52.6978 N.am      3 UNK        -0.4139 
     60 C          35.2537  -49.8180  -51.8667 C.2       2 UNK         0.5016 
     61 O          36.2817  -50.4167  -52.1914 O.2       2 UNK        -0.5319 
     62 CA         35.1074  -49.2599  -50.4347 C.3       2 UNK         0.0286 
     63 CB         36.4562  -49.1650  -49.6889 C.3       2 UNK        -0.1963 
     64 N          34.3974  -47.9738  -50.3698 N.am      2 UNK        -0.4790 
     65 C          34.7373  -46.8218  -50.9745 C.2       1 UNK         0.5024 
     66 O          35.7148  -46.6870  -51.7112 O.2       1 UNK        -0.4888 
     67 H67        32.1951  -45.6295  -47.0340 H         1 UNK         0.0892 
     68 H68        33.6633  -46.2388  -46.2676 H         1 UNK         0.0892 
     69 H69        33.3808  -44.4992  -46.3787 H         1 UNK         0.0892 
     70 H70        32.2826  -45.7320  -49.2680 H         1 UNK         0.3107 
     71 H71        34.4369  -44.7138  -50.8205 H         1 UNK         0.0773 
     72 H72        32.0737  -46.4442  -51.7019 H         1 UNK         0.0680 
     73 H73        33.1210  -45.5612  -52.7800 H         1 UNK         0.0680 
     74 H74        33.2929  -42.9771  -52.9183 H         1 UNK         0.0650 
     75 H75        31.8637  -41.9959  -52.7248 H         1 UNK         0.0650 
     76 H76        33.5560  -44.2675  -54.9440 H         1 UNK         0.1397 
     77 H77        30.3371  -44.4963  -57.7723 H         1 UNK         0.1363 
     78 H78        29.6877  -42.7301  -53.9208 H         1 UNK         0.1355 
     79 H79        27.9868  -44.2960  -56.6457 H         1 UNK         0.0707 
     80 H80        27.8195  -43.1395  -55.3422 H         1 UNK         0.0707 
     81 H81        26.1617  -41.0622  -56.6231 H         1 UNK         0.1034 
     82 H82        26.1292  -41.1813  -58.3574 H         1 UNK         0.1034 
     83 H83        25.6814  -43.4698  -56.3834 H         1 UNK         0.0482 
     84 H84        23.4293  -43.6511  -58.9288 H         1 UNK         0.3460 
     85 H85        22.1414  -42.7998  -58.1125 H         1 UNK         0.3460 
     86 H86        26.1619  -43.6156  -59.2594 H         1 UNK         0.2989 
     87 H87        25.0921  -46.1723  -60.1483 H         1 UNK         0.0559 
     88 H88        28.0420  -45.4586  -59.6698 H         1 UNK         0.0848 
     89 H89        26.9311  -44.6793  -60.7922 H         1 UNK         0.0848 
     90 H90        27.4647  -46.3179  -61.0934 H         1 UNK         0.0848 
     91 H91        26.8824  -47.5857  -58.2505 H         1 UNK         0.3144 
     92 H92        25.3404  -50.6739  -59.0318 H         1 UNK         0.0727 
     93 H93        27.6493  -51.5729  -59.2875 H         1 UNK         0.0790 
     94 H94        28.2529  -49.9591  -59.6576 H         1 UNK         0.0790 
     95 H95        27.1272  -50.7504  -60.7490 H         1 UNK         0.0790 
     96 H96        27.4937  -50.0604  -57.2623 H         1 UNK         0.3215 
     97 H97        25.3884  -49.2743  -54.4529 H         1 UNK         0.0863 
     98 H98        26.7549  -51.1495  -53.5607 H         1 UNK         0.0808 
     99 H99        27.1835  -51.6487  -55.1956 H         1 UNK         0.0808 
    100 H100       25.5146  -51.7447  -54.6522 H         1 UNK         0.0808 
    101 H101       28.2268  -49.3468  -55.3918 H         1 UNK         0.3118 
    102 H102       28.6286  -45.9303  -54.9414 H         1 UNK         0.0546 
    103 H103       28.8885  -46.4532  -52.5201 H         1 UNK         0.0828 
    104 H104       30.4359  -46.3224  -53.3376 H         1 UNK         0.0828 
    105 H105       29.7905  -47.9127  -52.9210 H         1 UNK         0.0828 
    106 H106       30.5317  -48.0669  -55.2590 H         1 UNK         0.3005 
    107 H107       29.9246  -48.6649  -58.6629 H         1 UNK         0.1257 
    108 H108       31.1705  -46.4966  -58.9169 H         1 UNK         0.0775 
    109 H109       32.0790  -47.9181  -59.3103 H         1 UNK         0.0775 
    110 H110       34.0092  -44.7562  -57.2940 H         1 UNK         0.0840 
    111 H111       32.7441  -44.7943  -58.4863 H         1 UNK         0.0840 
    112 H112       32.1015  -49.4706  -57.0593 H         1 UNK         0.2987 
    113 H113       30.5512  -51.8658  -55.0605 H         1 UNK         0.0785 
    114 H114       30.3299  -53.1704  -57.1820 H         1 UNK         0.0798 
    115 H115       31.7531  -53.6619  -56.2812 H         1 UNK         0.0798 
    116 H116       31.9190  -52.6253  -57.6998 H         1 UNK         0.0798 
    117 H117       33.2702  -51.6760  -55.8289 H         1 UNK         0.3079 
    118 H118       34.6924  -51.0031  -54.1905 H         1 UNK         0.0794 
    119 H119       34.3634  -48.0208  -54.8774 H         1 UNK         0.0786 
    120 H120       34.7715  -49.2768  -56.0423 H         1 UNK         0.0786 
    121 H121       35.8917  -48.8847  -54.7485 H         1 UNK         0.0786 
    122 H122       33.3861  -49.1584  -52.3616 H         1 UNK         0.3032 
    123 H123       34.4888  -49.9819  -49.8989 H         1 UNK         0.1094 
    124 H124       37.1560  -48.5043  -50.2019 H         1 UNK         0.0794 
    125 H125       36.3232  -48.7888  -48.6745 H         1 UNK         0.0794 
    126 H126       36.9313  -50.1437  -49.6100 H         1 UNK         0.0794 
    127 H127       33.5698  -47.9628  -49.7894 H         1 UNK         0.3016 
@<TRIPOS>BOND
     1    1    2 1    
     2    1   67 1    
     3    1   68 1    
     4    1   69 1    
     5    2    3 2    
     6    2    4 am   BACKBONE|DICT|INTERRES
     7    4    5 1    
     8    4   70 1    
     9    5    6 1    
    10    5   65 1    
    11    5   71 1    
    12    6    7 1    
    13    6   72 1    
    14    6   73 1    
    15    7    8 1    
    16    8    9 1    
    17    8   74 1    
    18    8   75 1    
    19    9   10 ar   
    20    9   14 ar   
    21   10   11 ar   
    22   10   76 1    
    23   11   12 ar   
    24   11   48 1    
    25   12   13 ar   
    26   12   77 1    
    27   13   14 ar   
    28   13   15 1    
    29   14   78 1    
    30   15   16 1    
    31   15   79 1    
    32   15   80 1    
    33   16   17 1    
    34   17   18 1    
    35   17   81 1    
    36   17   82 1    
    37   18   19 1    
    38   18   22 1    
    39   18   83 1    
    40   19   20 am   BACKBONE|DICT|INTERRES
    41   19   21 2    
    42   20   84 1    
    43   20   85 1    
    44   22   23 am   BACKBONE|DICT|INTERRES
    45   22   86 1    
    46   23   24 2    
    47   23   25 1    
    48   25   26 1    
    49   25   27 1    
    50   25   87 1    
    51   26   88 1    
    52   26   89 1    
    53   26   90 1    
    54   27   28 am   BACKBONE|DICT|INTERRES
    55   27   91 1    
    56   28   29 2    
    57   28   30 1    
    58   30   31 1    
    59   30   32 1    
    60   30   92 1    
    61   31   93 1    
    62   31   94 1    
    63   31   95 1    
    64   32   33 am   BACKBONE|DICT|INTERRES
    65   32   96 1    
    66   33   34 2    
    67   33   35 1    
    68   35   36 1    
    69   35   37 1    
    70   35   97 1    
    71   36   98 1    
    72   36   99 1    
    73   36  100 1    
    74   37   38 am   BACKBONE|DICT|INTERRES
    75   37  101 1    
    76   38   39 2    
    77   38   40 1    
    78   40   41 1    
    79   40   42 1    
    80   40  102 1    
    81   41  103 1    
    82   41  104 1    
    83   41  105 1    
    84   42   43 am   BACKBONE|DICT|INTERRES
    85   42  106 1    
    86   43   44 2    
    87   43   45 1    
    88   45   46 1    
    89   45   49 1    
    90   45  107 1    
    91   46   47 1    
    92   46  108 1    
    93   46  109 1    
    94   47   48 1    
    95   48  110 1    
    96   48  111 1    
    97   49   50 am   BACKBONE|DICT|INTERRES
    98   49  112 1    
    99   50   51 2    
   100   50   52 1    
   101   52   53 1    
   102   52   54 1    
   103   52  113 1    
   104   53  114 1    
   105   53  115 1    
   106   53  116 1    
   107   54   55 am   BACKBONE|DICT|INTERRES
   108   54  117 1    
   109   55   56 2    
   110   55   57 1    
   111   57   58 1    
   112   57   59 1    
   113   57  118 1    
   114   58  119 1    
   115   58  120 1    
   116   58  121 1    
   117   59   60 am   BACKBONE|DICT|INTERRES
   118   59  122 1    
   119   60   61 2    
   120   60   62 1    
   121   62   63 1    
   122   62   64 1    
   123   62  123 1    
   124   63  124 1    
   125   63  125 1    
   126   63  126 1    
   127   64   65 am   BACKBONE|DICT|INTERRES
   128   64  127 1    
   129   65   66 2    
@<TRIPOS>SUBSTRUCTURE
     1 UNK         1 GROUP             0       ****    0 ROOT    
