@<TRIPOS>MOLECULE
3R134
127   129    1
SMALL
USER_CHARGES


@<TRIPOS>ATOM
      1 CA         37.0839  -48.1327  -55.3403 C.3       0 UNK        -0.1968 
      2 C          35.7699  -47.4574  -54.9781 C.2       0 UNK         0.4852 
      3 O          34.7083  -47.9628  -55.3437 O.2       0 UNK        -0.5359 
      4 N          35.8351  -46.3291  -54.2553 N.am      1 UNK        -0.4300 
      5 CA         34.6925  -45.5165  -53.8147 C.3       1 UNK         0.0863 
      6 C6         35.1494  -44.2795  -52.9965 C.3       11 UNK        -0.0953 
      7 S7         35.5289  -42.8761  -54.0950 S.3       11 UNK        -0.2369 
      8 C8         34.1506  -41.7377  -53.7267 C.3       11 UNK         0.0226 
      9 C9         32.7805  -42.3770  -53.9292 C.ar      11 UNK        -0.0699 
     10 C10        31.9563  -42.6482  -52.8305 C.ar      11 UNK        -0.0804 
     11 C11        30.6913  -43.2232  -53.0005 C.ar      11 UNK        -0.0871 
     12 C12        30.2544  -43.5181  -54.2988 C.ar      11 UNK        -0.1008 
     13 C13        31.0703  -43.2570  -55.4039 C.ar      11 UNK        -0.0735 
     14 C14        32.3305  -42.6845  -55.2155 C.ar      11 UNK        -0.0945 
     15 C15        30.5872  -43.6024  -56.8004 C.3       11 UNK         0.0169 
     16 S16        29.6995  -42.2085  -57.5578 S.3       11 UNK        -0.2669 
     17 C17        28.8776  -43.0982  -58.9186 C.3       11 UNK        -0.0850 
     18 CA         27.4893  -43.6615  -58.4732 C.3       10 UNK         0.0855 
     19 C          26.2701  -42.8986  -59.0775 C.2       10 UNK         0.5543 
     20 N          26.3099  -41.5728  -59.0874 N.am      10 UNK        -0.7343 
     21 O          25.2717  -43.4839  -59.4948 O.2       10 UNK        -0.5027 
     22 N          27.4206  -45.1240  -58.6045 N.am      10 UNK        -0.4495 
     23 C          27.4852  -45.8331  -59.7410 C.2       10 UNK         0.4903 
     24 O          27.6498  -45.3375  -60.8565 O.2       10 UNK        -0.4860 
     25 CA         27.3819  -47.3635  -59.6123 C.3       9 UNK         0.0227 
     26 CB         28.7652  -48.0114  -59.7936 C.3       9 UNK        -0.1964 
     27 N          26.8303  -47.7868  -58.3232 N.am      9 UNK        -0.4231 
     28 C          25.5246  -47.8408  -58.0252 C.2       9 UNK         0.5014 
     29 O          24.6284  -47.5439  -58.8177 O.2       9 UNK        -0.5270 
     30 CA         25.1762  -48.3104  -56.5979 C.3       8 UNK         0.0284 
     31 CB         23.6852  -48.6678  -56.4178 C.3       8 UNK        -0.1977 
     32 N          26.0417  -49.4067  -56.1472 N.am      8 UNK        -0.4342 
     33 C          26.1777  -50.6214  -56.7036 C.2       8 UNK         0.5039 
     34 O          25.4963  -51.0279  -57.6460 O.2       8 UNK        -0.5547 
     35 CA         27.2841  -51.5373  -56.1475 C.3       7 UNK         0.0281 
     36 CB         28.4311  -51.6503  -57.1662 C.3       7 UNK        -0.1963 
     37 N          27.8327  -51.0904  -54.8643 N.am      7 UNK        -0.4444 
     38 C          27.2000  -51.1812  -53.6873 C.2       7 UNK         0.5104 
     39 O          26.0967  -51.7083  -53.5409 O.2       7 UNK        -0.5100 
     40 CA         27.9012  -50.5456  -52.4739 C.3       6 UNK         0.0396 
     41 CB         28.9180  -51.5247  -51.8670 C.3       6 UNK        -0.1801 
     42 N          28.5619  -49.2699  -52.7773 N.am      6 UNK        -0.4747 
     43 C          27.9339  -48.1627  -53.2065 C.2       6 UNK         0.5012 
     44 O          26.7222  -48.1024  -53.4155 O.2       6 UNK        -0.5003 
     45 CA         28.8112  -46.9284  -53.4952 C.3       5 UNK         0.0782 
     46 C46        29.2544  -46.2170  -52.1837 C.3       11 UNK        -0.0868 
     47 S47        28.4153  -44.6147  -51.9577 S.3       11 UNK        -0.2515 
     48 C48        29.8300  -43.4699  -51.7568 C.3       11 UNK         0.0199 
     49 N          29.9389  -47.2688  -54.3653 N.am      5 UNK        -0.4607 
     50 C          29.8244  -47.6975  -55.6303 C.2       4 UNK         0.5031 
     51 O          28.7542  -47.7730  -56.2368 O.2       4 UNK        -0.5119 
     52 CA         31.1147  -48.1579  -56.3280 C.3       4 UNK         0.0263 
     53 CB         31.8648  -46.9617  -56.9327 C.3       4 UNK        -0.1967 
     54 N          32.0081  -48.9053  -55.4385 N.am      4 UNK        -0.4237 
     55 C          31.6961  -50.0730  -54.8567 C.2       3 UNK         0.4908 
     56 O          30.6342  -50.6665  -55.0371 O.2       3 UNK        -0.5102 
     57 CA         32.7169  -50.6591  -53.8711 C.3       3 UNK         0.0241 
     58 CB         33.8778  -51.3406  -54.6133 C.3       3 UNK        -0.1971 
     59 N          33.2338  -49.6479  -52.9492 N.am      3 UNK        -0.4139 
     60 C          32.5029  -49.0388  -52.0044 C.2       2 UNK         0.5016 
     61 O          31.3172  -49.2842  -51.7826 O.2       2 UNK        -0.5319 
     62 CA         33.2063  -47.9325  -51.2007 C.3       2 UNK         0.0286 
     63 CB         34.0127  -48.5335  -50.0387 C.3       2 UNK        -0.1963 
     64 N          34.0789  -47.0879  -52.0241 N.am      2 UNK        -0.4790 
     65 C          33.6405  -46.3293  -53.0400 C.2       1 UNK         0.5024 
     66 O          32.4659  -46.2857  -53.3991 O.2       1 UNK        -0.4888 
     67 H67        37.9443  -47.5828  -54.9634 H         1 UNK         0.0892 
     68 H68        37.1150  -49.1384  -54.9252 H         1 UNK         0.0892 
     69 H69        37.1782  -48.2091  -56.4219 H         1 UNK         0.0892 
     70 H70        36.7431  -45.9664  -54.0017 H         1 UNK         0.3107 
     71 H71        34.1846  -45.1746  -54.7203 H         1 UNK         0.0773 
     72 H72        36.0330  -44.5084  -52.3976 H         1 UNK         0.0680 
     73 H73        34.3948  -43.9605  -52.2754 H         1 UNK         0.0680 
     74 H74        34.2592  -41.3730  -52.7039 H         1 UNK         0.0650 
     75 H75        34.2365  -40.8624  -54.3725 H         1 UNK         0.0650 
     76 H76        32.3006  -42.4057  -51.8339 H         1 UNK         0.1397 
     77 H77        29.2772  -43.9479  -54.4634 H         1 UNK         0.1363 
     78 H78        32.9622  -42.4775  -56.0689 H         1 UNK         0.1355 
     79 H79        31.4298  -43.8835  -57.4346 H         1 UNK         0.0707 
     80 H80        29.9298  -44.4728  -56.7538 H         1 UNK         0.0707 
     81 H81        29.5433  -43.8926  -59.2581 H         1 UNK         0.1034 
     82 H82        28.7960  -42.4305  -59.7788 H         1 UNK         0.1034 
     83 H83        27.3724  -43.5123  -57.3973 H         1 UNK         0.0482 
     84 H84        25.5237  -41.0610  -59.4591 H         1 UNK         0.3460 
     85 H85        27.1066  -41.0758  -58.7174 H         1 UNK         0.3460 
     86 H86        27.2665  -45.6318  -57.7467 H         1 UNK         0.2989 
     87 H87        26.7297  -47.7219  -60.4120 H         1 UNK         0.0559 
     88 H88        29.4721  -47.6729  -59.0353 H         1 UNK         0.0848 
     89 H89        29.1882  -47.7620  -60.7678 H         1 UNK         0.0848 
     90 H90        28.7060  -49.0988  -59.7356 H         1 UNK         0.0848 
     91 H91        27.5028  -47.9909  -57.5849 H         1 UNK         0.3144 
     92 H92        25.3927  -47.4667  -55.9408 H         1 UNK         0.0727 
     93 H93        23.3758  -49.4706  -57.0878 H         1 UNK         0.0790 
     94 H94        23.0495  -47.8069  -56.6281 H         1 UNK         0.0790 
     95 H95        23.4749  -48.9835  -55.3959 H         1 UNK         0.0790 
     96 H96        26.6489  -49.1785  -55.3688 H         1 UNK         0.3215 
     97 H97        26.8480  -52.5289  -56.0082 H         1 UNK         0.0863 
     98 H98        28.9086  -50.6850  -57.3408 H         1 UNK         0.0808 
     99 H99        28.0687  -52.0144  -58.1287 H         1 UNK         0.0808 
    100 H100       29.1979  -52.3461  -56.8252 H         1 UNK         0.0808 
    101 H101       28.7805  -50.7157  -54.8799 H         1 UNK         0.3118 
    102 H102       27.1363  -50.3446  -51.7211 H         1 UNK         0.0546 
    103 H103       29.3494  -51.1287  -50.9475 H         1 UNK         0.0828 
    104 H104       29.7367  -51.7339  -52.5564 H         1 UNK         0.0828 
    105 H105       28.4465  -52.4769  -51.6198 H         1 UNK         0.0828 
    106 H106       29.5654  -49.2322  -52.6108 H         1 UNK         0.3005 
    107 H107       28.1868  -46.2463  -54.0768 H         1 UNK         0.1257 
    108 H108       30.3284  -46.0440  -52.1741 H         1 UNK         0.0775 
    109 H109       29.0692  -46.8229  -51.2941 H         1 UNK         0.0775 
    110 H110       29.4390  -42.5084  -51.4216 H         1 UNK         0.0840 
    111 H111       30.4581  -43.8427  -50.9457 H         1 UNK         0.0840 
    112 H112       30.8689  -47.1596  -53.9692 H         1 UNK         0.2987 
    113 H113       30.8282  -48.8280  -57.1411 H         1 UNK         0.0785 
    114 H114       32.7630  -47.2833  -57.4602 H         1 UNK         0.0798 
    115 H115       31.2390  -46.4333  -57.6522 H         1 UNK         0.0798 
    116 H116       32.1674  -46.2459  -56.1669 H         1 UNK         0.0798 
    117 H117       32.9279  -48.5011  -55.2670 H         1 UNK         0.3079 
    118 H118       32.2039  -51.4191  -53.2779 H         1 UNK         0.0794 
    119 H119       34.5675  -51.8180  -53.9171 H         1 UNK         0.0786 
    120 H120       34.4469  -50.6347  -55.2186 H         1 UNK         0.0786 
    121 H121       33.5064  -52.1171  -55.2836 H         1 UNK         0.0786 
    122 H122       34.1826  -49.3362  -53.0957 H         1 UNK         0.3032 
    123 H123       32.4254  -47.2936  -50.7810 H         1 UNK         0.1094 
    124 H124       34.8311  -49.1614  -50.3935 H         1 UNK         0.0794 
    125 H125       34.4366  -47.7544  -49.4047 H         1 UNK         0.0794 
    126 H126       33.3775  -49.1538  -49.4043 H         1 UNK         0.0794 
    127 H127       35.0638  -47.0802  -51.7996 H         1 UNK         0.3016 
@<TRIPOS>BOND
     1    1    2 1    
     2    1   67 1    
     3    1   68 1    
     4    1   69 1    
     5    2    3 2    
     6    2    4 am   BACKBONE|DICT|INTERRES
     7    4    5 1    
     8    4   70 1    
     9    5    6 1    
    10    5   65 1    
    11    5   71 1    
    12    6    7 1    
    13    6   72 1    
    14    6   73 1    
    15    7    8 1    
    16    8    9 1    
    17    8   74 1    
    18    8   75 1    
    19    9   10 ar   
    20    9   14 ar   
    21   10   11 ar   
    22   10   76 1    
    23   11   12 ar   
    24   11   48 1    
    25   12   13 ar   
    26   12   77 1    
    27   13   14 ar   
    28   13   15 1    
    29   14   78 1    
    30   15   16 1    
    31   15   79 1    
    32   15   80 1    
    33   16   17 1    
    34   17   18 1    
    35   17   81 1    
    36   17   82 1    
    37   18   19 1    
    38   18   22 1    
    39   18   83 1    
    40   19   20 am   BACKBONE|DICT|INTERRES
    41   19   21 2    
    42   20   84 1    
    43   20   85 1    
    44   22   23 am   BACKBONE|DICT|INTERRES
    45   22   86 1    
    46   23   24 2    
    47   23   25 1    
    48   25   26 1    
    49   25   27 1    
    50   25   87 1    
    51   26   88 1    
    52   26   89 1    
    53   26   90 1    
    54   27   28 am   BACKBONE|DICT|INTERRES
    55   27   91 1    
    56   28   29 2    
    57   28   30 1    
    58   30   31 1    
    59   30   32 1    
    60   30   92 1    
    61   31   93 1    
    62   31   94 1    
    63   31   95 1    
    64   32   33 am   BACKBONE|DICT|INTERRES
    65   32   96 1    
    66   33   34 2    
    67   33   35 1    
    68   35   36 1    
    69   35   37 1    
    70   35   97 1    
    71   36   98 1    
    72   36   99 1    
    73   36  100 1    
    74   37   38 am   BACKBONE|DICT|INTERRES
    75   37  101 1    
    76   38   39 2    
    77   38   40 1    
    78   40   41 1    
    79   40   42 1    
    80   40  102 1    
    81   41  103 1    
    82   41  104 1    
    83   41  105 1    
    84   42   43 am   BACKBONE|DICT|INTERRES
    85   42  106 1    
    86   43   44 2    
    87   43   45 1    
    88   45   46 1    
    89   45   49 1    
    90   45  107 1    
    91   46   47 1    
    92   46  108 1    
    93   46  109 1    
    94   47   48 1    
    95   48  110 1    
    96   48  111 1    
    97   49   50 am   BACKBONE|DICT|INTERRES
    98   49  112 1    
    99   50   51 2    
   100   50   52 1    
   101   52   53 1    
   102   52   54 1    
   103   52  113 1    
   104   53  114 1    
   105   53  115 1    
   106   53  116 1    
   107   54   55 am   BACKBONE|DICT|INTERRES
   108   54  117 1    
   109   55   56 2    
   110   55   57 1    
   111   57   58 1    
   112   57   59 1    
   113   57  118 1    
   114   58  119 1    
   115   58  120 1    
   116   58  121 1    
   117   59   60 am   BACKBONE|DICT|INTERRES
   118   59  122 1    
   119   60   61 2    
   120   60   62 1    
   121   62   63 1    
   122   62   64 1    
   123   62  123 1    
   124   63  124 1    
   125   63  125 1    
   126   63  126 1    
   127   64   65 am   BACKBONE|DICT|INTERRES
   128   64  127 1    
   129   65   66 2    
@<TRIPOS>SUBSTRUCTURE
     1 UNK         1 GROUP             0       ****    0 ROOT    
