@<TRIPOS>MOLECULE
3R134
127   129    1
SMALL
USER_CHARGES


@<TRIPOS>ATOM
      1 CA         31.5533  -49.1589  -49.8193 C.3       0 UNK        -0.1968 
      2 C          32.6245  -48.1047  -49.5826 C.2       0 UNK         0.4852 
      3 O          33.6751  -48.4120  -49.0187 O.2       0 UNK        -0.5359 
      4 N          32.3691  -46.8646  -50.0205 N.am      1 UNK        -0.4300 
      5 CA         33.2768  -45.7114  -49.9278 C.3       1 UNK         0.0863 
      6 C6         32.5238  -44.3647  -50.1084 C.3       11 UNK        -0.0953 
      7 S7         31.3937  -44.3336  -51.5414 S.3       11 UNK        -0.2369 
      8 C8         32.2881  -43.2822  -52.7208 C.3       11 UNK         0.0226 
      9 C9         31.8684  -43.6110  -54.1446 C.ar      11 UNK        -0.0699 
     10 C10        32.6984  -44.3901  -54.9523 C.ar      11 UNK        -0.0804 
     11 C11        32.3226  -44.7185  -56.2572 C.ar      11 UNK        -0.0871 
     12 C12        31.0952  -44.2654  -56.7511 C.ar      11 UNK        -0.1008 
     13 C13        30.2476  -43.4914  -55.9503 C.ar      11 UNK        -0.0735 
     14 C14        30.6489  -43.1542  -54.6525 C.ar      11 UNK        -0.0945 
     15 C15        28.9033  -43.0149  -56.4870 C.3       11 UNK         0.0169 
     16 S16        27.5182  -43.6544  -55.4933 S.3       11 UNK        -0.2669 
     17 C17        26.0731  -43.0185  -56.4080 C.3       11 UNK        -0.0850 
     18 CA         25.1586  -44.1565  -56.9581 C.3       10 UNK         0.0855 
     19 C          23.8215  -43.6271  -57.5625 C.2       10 UNK         0.5543 
     20 N          23.1268  -42.7355  -56.8675 N.am      10 UNK        -0.7343 
     21 O          23.3759  -44.0377  -58.6331 O.2       10 UNK        -0.5027 
     22 N          25.8682  -45.0961  -57.8430 N.am      10 UNK        -0.4495 
     23 C          26.4663  -44.8032  -59.0068 C.2       10 UNK         0.4903 
     24 O          26.5300  -43.6673  -59.4794 O.2       10 UNK        -0.4860 
     25 CA         27.1129  -45.9617  -59.7876 C.3       9 UNK         0.0227 
     26 CB         28.5989  -45.6747  -60.0698 C.3       9 UNK        -0.1964 
     27 N          26.9993  -47.2409  -59.0785 N.am      9 UNK        -0.4231 
     28 C          26.2291  -48.2641  -59.4720 C.2       9 UNK         0.5014 
     29 O          25.5403  -48.2477  -60.4934 O.2       9 UNK        -0.5270 
     30 CA         26.2162  -49.5342  -58.6024 C.3       8 UNK         0.0284 
     31 CB         27.2217  -50.5673  -59.1376 C.3       8 UNK        -0.1977 
     32 N          26.4525  -49.3252  -57.1708 N.am      8 UNK        -0.4342 
     33 C          25.6181  -48.6771  -56.3441 C.2       8 UNK         0.5039 
     34 O          24.6462  -48.0245  -56.7247 O.2       8 UNK        -0.5547 
     35 CA         25.9131  -48.7795  -54.8415 C.3       7 UNK         0.0281 
     36 CB         25.6715  -50.2094  -54.3278 C.3       7 UNK        -0.1963 
     37 N          27.2947  -48.3928  -54.5786 N.am      7 UNK        -0.4444 
     38 C          27.6717  -47.2396  -54.0118 C.2       7 UNK         0.5104 
     39 O          26.8910  -46.4529  -53.4757 O.2       7 UNK        -0.5100 
     40 CA         29.1774  -46.9067  -54.0403 C.3       6 UNK         0.0396 
     41 CB         29.8152  -47.2734  -52.6933 C.3       6 UNK        -0.1801 
     42 N          29.9251  -47.5808  -55.1063 N.am      6 UNK        -0.4747 
     43 C          29.6721  -47.4971  -56.4229 C.2       6 UNK         0.5012 
     44 O          28.7816  -46.8031  -56.9092 O.2       6 UNK        -0.5003 
     45 CA         30.4697  -48.4320  -57.3574 C.3       5 UNK         0.0782 
     46 C46        31.6666  -47.7077  -58.0201 C.3       11 UNK        -0.0868 
     47 S47        33.0472  -47.3303  -56.8805 S.3       11 UNK        -0.2515 
     48 C48        33.2622  -45.5387  -57.1299 C.3       11 UNK         0.0199 
     49 N          30.8707  -49.6885  -56.7155 N.am      5 UNK        -0.4607 
     50 C          30.0566  -50.5542  -56.0943 C.2       4 UNK         0.5031 
     51 O          28.8275  -50.4605  -56.1109 O.2       4 UNK        -0.5119 
     52 CA         30.7149  -51.6715  -55.2611 C.3       4 UNK         0.0263 
     53 CB         30.5862  -53.0192  -55.9882 C.3       4 UNK        -0.1967 
     54 N          32.1263  -51.4398  -54.9149 N.am      4 UNK        -0.4237 
     55 C          32.6081  -50.3914  -54.2296 C.2       3 UNK         0.4908 
     56 O          31.9022  -49.4769  -53.7940 O.2       3 UNK        -0.5102 
     57 CA         34.1317  -50.3275  -54.0427 C.3       3 UNK         0.0241 
     58 CB         34.8987  -50.6300  -55.3498 C.3       3 UNK        -0.1971 
     59 N          34.4714  -48.9924  -53.5594 N.am      3 UNK        -0.4139 
     60 C          35.6142  -48.6274  -52.9680 C.2       2 UNK         0.5016 
     61 O          36.5481  -49.3950  -52.7333 O.2       2 UNK        -0.5319 
     62 CA         35.7201  -47.1565  -52.5534 C.3       2 UNK         0.0286 
     63 CB         35.9176  -46.2474  -53.7803 C.3       2 UNK        -0.1963 
     64 N          34.5379  -46.7656  -51.7819 N.am      2 UNK        -0.4790 
     65 C          34.5261  -45.8164  -50.8361 C.2       1 UNK         0.5024 
     66 O          35.4716  -45.0518  -50.6373 O.2       1 UNK        -0.4888 
     67 H67        31.8335  -49.7970  -50.6574 H         1 UNK         0.0892 
     68 H68        31.4376  -49.7856  -48.9353 H         1 UNK         0.0892 
     69 H69        30.5852  -48.7099  -50.0399 H         1 UNK         0.0892 
     70 H70        31.4857  -46.6632  -50.4672 H         1 UNK         0.3107 
     71 H71        33.6721  -45.7109  -48.9096 H         1 UNK         0.0773 
     72 H72        31.9121  -44.1837  -49.2233 H         1 UNK         0.0680 
     73 H73        33.2149  -43.5207  -50.1536 H         1 UNK         0.0680 
     74 H74        33.3633  -43.4259  -52.6018 H         1 UNK         0.0650 
     75 H75        32.0859  -42.2333  -52.4997 H         1 UNK         0.0650 
     76 H76        33.6419  -44.7377  -54.5615 H         1 UNK         0.1397 
     77 H77        30.7974  -44.5192  -57.7580 H         1 UNK         0.1363 
     78 H78        29.9977  -42.5585  -54.0275 H         1 UNK         0.1355 
     79 H79        28.7694  -43.3296  -57.5230 H         1 UNK         0.0707 
     80 H80        28.8801  -41.9244  -56.4829 H         1 UNK         0.0707 
     81 H81        25.5242  -42.3840  -55.7115 H         1 UNK         0.1034 
     82 H82        26.3974  -42.3574  -57.2129 H         1 UNK         0.1034 
     83 H83        24.8525  -44.7679  -56.1082 H         1 UNK         0.0482 
     84 H84        22.2540  -42.3992  -57.2438 H         1 UNK         0.3460 
     85 H85        23.4416  -42.4055  -55.9690 H         1 UNK         0.3460 
     86 H86        25.8182  -46.0660  -57.5649 H         1 UNK         0.2989 
     87 H87        26.5992  -46.0118  -60.7494 H         1 UNK         0.0559 
     88 H88        29.1594  -45.5124  -59.1505 H         1 UNK         0.0848 
     89 H89        28.7146  -44.7784  -60.6804 H         1 UNK         0.0848 
     90 H90        29.0680  -46.4965  -60.6107 H         1 UNK         0.0848 
     91 H91        27.5262  -47.3047  -58.2100 H         1 UNK         0.3144 
     92 H92        25.2181  -49.9673  -58.6974 H         1 UNK         0.0727 
     93 H93        28.2495  -50.2158  -59.0572 H         1 UNK         0.0790 
     94 H94        27.0344  -50.7857  -60.1900 H         1 UNK         0.0790 
     95 H95        27.1485  -51.5103  -58.5953 H         1 UNK         0.0790 
     96 H96        27.2469  -49.8222  -56.7715 H         1 UNK         0.3215 
     97 H97        25.2206  -48.1138  -54.3214 H         1 UNK         0.0863 
     98 H98        25.8130  -50.2675  -53.2486 H         1 UNK         0.0808 
     99 H99        26.3450  -50.9323  -54.7901 H         1 UNK         0.0808 
    100 H100       24.6508  -50.5318  -54.5382 H         1 UNK         0.0808 
    101 H101       28.0137  -48.9776  -54.9895 H         1 UNK         0.3118 
    102 H102       29.2820  -45.8316  -54.1957 H         1 UNK         0.0546 
    103 H103       29.3465  -46.7216  -51.8777 H         1 UNK         0.0828 
    104 H104       30.8785  -47.0357  -52.6870 H         1 UNK         0.0828 
    105 H105       29.7100  -48.3371  -52.4759 H         1 UNK         0.0828 
    106 H106       30.6692  -48.2007  -54.8012 H         1 UNK         0.3005 
    107 H107       29.7814  -48.7053  -58.1583 H         1 UNK         0.1257 
    108 H108       31.3278  -46.7970  -58.5164 H         1 UNK         0.0775 
    109 H109       32.0675  -48.3342  -58.8183 H         1 UNK         0.0775 
    110 H110       34.2950  -45.2801  -56.8910 H         1 UNK         0.0840 
    111 H111       33.1318  -45.2861  -58.1833 H         1 UNK         0.0840 
    112 H112       31.8658  -49.8344  -56.6346 H         1 UNK         0.2987 
    113 H113       30.1577  -51.7327  -54.3241 H         1 UNK         0.0785 
    114 H114       29.5446  -53.2336  -56.2331 H         1 UNK         0.0798 
    115 H115       30.9452  -53.8415  -55.3691 H         1 UNK         0.0798 
    116 H116       31.1488  -53.0293  -56.9227 H         1 UNK         0.0798 
    117 H117       32.7809  -52.1380  -55.2371 H         1 UNK         0.3079 
    118 H118       34.4036  -51.0592  -53.2792 H         1 UNK         0.0794 
    119 H119       34.6053  -49.9543  -56.1540 H         1 UNK         0.0786 
    120 H120       34.7260  -51.6498  -55.6941 H         1 UNK         0.0786 
    121 H121       35.9754  -50.5286  -55.2133 H         1 UNK         0.0786 
    122 H122       33.7324  -48.3149  -53.6980 H         1 UNK         0.3032 
    123 H123       36.6000  -47.0652  -51.9117 H         1 UNK         0.1094 
    124 H124       35.1331  -46.3929  -54.5223 H         1 UNK         0.0794 
    125 H125       35.9365  -45.1935  -53.5030 H         1 UNK         0.0794 
    126 H126       36.8655  -46.4690  -54.2723 H         1 UNK         0.0794 
    127 H127       33.7400  -47.3824  -51.8334 H         1 UNK         0.3016 
@<TRIPOS>BOND
     1    1    2 1    
     2    1   67 1    
     3    1   68 1    
     4    1   69 1    
     5    2    3 2    
     6    2    4 am   BACKBONE|DICT|INTERRES
     7    4    5 1    
     8    4   70 1    
     9    5    6 1    
    10    5   65 1    
    11    5   71 1    
    12    6    7 1    
    13    6   72 1    
    14    6   73 1    
    15    7    8 1    
    16    8    9 1    
    17    8   74 1    
    18    8   75 1    
    19    9   10 ar   
    20    9   14 ar   
    21   10   11 ar   
    22   10   76 1    
    23   11   12 ar   
    24   11   48 1    
    25   12   13 ar   
    26   12   77 1    
    27   13   14 ar   
    28   13   15 1    
    29   14   78 1    
    30   15   16 1    
    31   15   79 1    
    32   15   80 1    
    33   16   17 1    
    34   17   18 1    
    35   17   81 1    
    36   17   82 1    
    37   18   19 1    
    38   18   22 1    
    39   18   83 1    
    40   19   20 am   BACKBONE|DICT|INTERRES
    41   19   21 2    
    42   20   84 1    
    43   20   85 1    
    44   22   23 am   BACKBONE|DICT|INTERRES
    45   22   86 1    
    46   23   24 2    
    47   23   25 1    
    48   25   26 1    
    49   25   27 1    
    50   25   87 1    
    51   26   88 1    
    52   26   89 1    
    53   26   90 1    
    54   27   28 am   BACKBONE|DICT|INTERRES
    55   27   91 1    
    56   28   29 2    
    57   28   30 1    
    58   30   31 1    
    59   30   32 1    
    60   30   92 1    
    61   31   93 1    
    62   31   94 1    
    63   31   95 1    
    64   32   33 am   BACKBONE|DICT|INTERRES
    65   32   96 1    
    66   33   34 2    
    67   33   35 1    
    68   35   36 1    
    69   35   37 1    
    70   35   97 1    
    71   36   98 1    
    72   36   99 1    
    73   36  100 1    
    74   37   38 am   BACKBONE|DICT|INTERRES
    75   37  101 1    
    76   38   39 2    
    77   38   40 1    
    78   40   41 1    
    79   40   42 1    
    80   40  102 1    
    81   41  103 1    
    82   41  104 1    
    83   41  105 1    
    84   42   43 am   BACKBONE|DICT|INTERRES
    85   42  106 1    
    86   43   44 2    
    87   43   45 1    
    88   45   46 1    
    89   45   49 1    
    90   45  107 1    
    91   46   47 1    
    92   46  108 1    
    93   46  109 1    
    94   47   48 1    
    95   48  110 1    
    96   48  111 1    
    97   49   50 am   BACKBONE|DICT|INTERRES
    98   49  112 1    
    99   50   51 2    
   100   50   52 1    
   101   52   53 1    
   102   52   54 1    
   103   52  113 1    
   104   53  114 1    
   105   53  115 1    
   106   53  116 1    
   107   54   55 am   BACKBONE|DICT|INTERRES
   108   54  117 1    
   109   55   56 2    
   110   55   57 1    
   111   57   58 1    
   112   57   59 1    
   113   57  118 1    
   114   58  119 1    
   115   58  120 1    
   116   58  121 1    
   117   59   60 am   BACKBONE|DICT|INTERRES
   118   59  122 1    
   119   60   61 2    
   120   60   62 1    
   121   62   63 1    
   122   62   64 1    
   123   62  123 1    
   124   63  124 1    
   125   63  125 1    
   126   63  126 1    
   127   64   65 am   BACKBONE|DICT|INTERRES
   128   64  127 1    
   129   65   66 2    
@<TRIPOS>SUBSTRUCTURE
     1 UNK         1 GROUP             0       ****    0 ROOT    
