@<TRIPOS>MOLECULE
3R134
127   129    1
SMALL
USER_CHARGES


@<TRIPOS>ATOM
      1 CA         26.9517  -43.5967  -58.6845 C.3       0 UNK        -0.1968 
      2 C          27.9075  -43.8686  -57.5331 C.2       0 UNK         0.4852 
      3 O          27.6424  -43.4393  -56.4114 O.2       0 UNK        -0.5359 
      4 N          29.0137  -44.5741  -57.7986 N.am      1 UNK        -0.4300 
      5 CA         30.0438  -44.9150  -56.8147 C.3       1 UNK         0.0863 
      6 C6         31.3930  -45.2323  -57.4983 C.3       11 UNK        -0.0953 
      7 S7         32.1216  -43.8365  -58.4283 S.3       11 UNK        -0.2369 
      8 C8         32.2920  -42.4891  -57.1973 C.3       11 UNK         0.0226 
      9 C9         32.7190  -42.9558  -55.8084 C.ar      11 UNK        -0.0699 
     10 C10        33.8071  -43.8169  -55.6458 C.ar      11 UNK        -0.0804 
     11 C11        34.1324  -44.3167  -54.3840 C.ar      11 UNK        -0.0871 
     12 C12        33.3798  -43.9222  -53.2732 C.ar      11 UNK        -0.1008 
     13 C13        32.3062  -43.0345  -53.4084 C.ar      11 UNK        -0.0735 
     14 C14        31.9995  -42.5395  -54.6832 C.ar      11 UNK        -0.0945 
     15 C15        31.5250  -42.6426  -52.1477 C.3       11 UNK         0.0169 
     16 S16        29.8944  -41.8400  -52.3824 S.3       11 UNK        -0.2669 
     17 C17        28.9563  -42.9992  -53.4470 C.3       11 UNK        -0.0850 
     18 CA         27.8391  -43.8809  -52.8174 C.3       10 UNK         0.0855 
     19 C          26.9716  -43.1350  -51.7601 C.2       10 UNK         0.5543 
     20 N          25.8490  -42.5378  -52.1439 N.am      10 UNK        -0.7343 
     21 O          27.3023  -43.1268  -50.5770 O.2       10 UNK        -0.5027 
     22 N          27.0313  -44.5010  -53.8863 N.am      10 UNK        -0.4495 
     23 C          26.1958  -45.5349  -53.7188 C.2       10 UNK         0.4903 
     24 O          26.1725  -46.2371  -52.7084 O.2       10 UNK        -0.4860 
     25 CA         25.1945  -45.8155  -54.8499 C.3       9 UNK         0.0227 
     26 CB         24.4889  -44.5294  -55.3383 C.3       9 UNK        -0.1964 
     27 N          25.8124  -46.5573  -55.9534 N.am      9 UNK        -0.4231 
     28 C          25.1236  -47.1931  -56.9157 C.2       9 UNK         0.5014 
     29 O          23.8941  -47.1867  -56.9918 O.2       9 UNK        -0.5270 
     30 CA         25.9130  -48.0025  -57.9578 C.3       8 UNK         0.0284 
     31 CB         26.5012  -47.1059  -59.0561 C.3       8 UNK        -0.1977 
     32 N          26.9826  -48.7781  -57.3347 N.am      8 UNK        -0.4342 
     33 C          26.8905  -50.0767  -57.0247 C.2       8 UNK         0.5039 
     34 O          25.9129  -50.7799  -57.2895 O.2       8 UNK        -0.5547 
     35 CA         28.0887  -50.6780  -56.2717 C.3       7 UNK         0.0281 
     36 CB         28.0246  -52.2158  -56.1449 C.3       7 UNK        -0.1963 
     37 N          29.3875  -50.2391  -56.7977 N.am      7 UNK        -0.4444 
     38 C          29.8942  -50.4794  -58.0168 C.2       7 UNK         0.5104 
     39 O          29.3274  -51.1619  -58.8706 O.2       7 UNK        -0.5100 
     40 CA         31.2490  -49.8421  -58.3745 C.3       6 UNK         0.0396 
     41 CB         31.0165  -48.6453  -59.3154 C.3       6 UNK        -0.1801 
     42 N          32.0448  -49.4418  -57.2046 N.am      6 UNK        -0.4747 
     43 C          33.3732  -49.2524  -57.2045 C.2       6 UNK         0.5012 
     44 O          34.0746  -49.3546  -58.2118 O.2       6 UNK        -0.5003 
     45 CA         34.0441  -48.9190  -55.8574 C.3       5 UNK         0.0782 
     46 C46        33.9021  -47.4172  -55.5071 C.3       11 UNK        -0.0868 
     47 S47        34.7241  -46.9900  -53.9311 S.3       11 UNK        -0.2515 
     48 C48        35.2945  -45.2864  -54.2248 C.3       11 UNK         0.0199 
     49 N          33.5048  -49.7598  -54.7883 N.am      5 UNK        -0.4607 
     50 C          34.1504  -50.7805  -54.2145 C.2       4 UNK         0.5031 
     51 O          35.2131  -51.2396  -54.6352 O.2       4 UNK        -0.5119 
     52 CA         33.5469  -51.3627  -52.9223 C.3       4 UNK         0.0263 
     53 CB         34.4322  -51.0049  -51.7161 C.3       4 UNK        -0.1967 
     54 N          32.1848  -50.8915  -52.6554 N.am      4 UNK        -0.4237 
     55 C          31.0848  -51.4390  -53.1850 C.2       3 UNK         0.4908 
     56 O          31.0972  -52.4143  -53.9357 O.2       3 UNK        -0.5102 
     57 CA         29.7418  -50.7814  -52.8242 C.3       3 UNK         0.0241 
     58 CB         29.2564  -51.2838  -51.4545 C.3       3 UNK        -0.1971 
     59 N          29.7268  -49.3097  -52.8322 N.am      3 UNK        -0.4139 
     60 C          30.1755  -48.4929  -53.7983 C.2       2 UNK         0.5016 
     61 O          30.7451  -48.8809  -54.8189 O.2       2 UNK        -0.5319 
     62 CA         29.9798  -46.9885  -53.5551 C.3       2 UNK         0.0286 
     63 CB         30.8446  -46.5303  -52.3699 C.3       2 UNK        -0.1963 
     64 N          30.2943  -46.1312  -54.7063 N.am      2 UNK        -0.4790 
     65 C          29.6060  -46.0478  -55.8546 C.2       1 UNK         0.5024 
     66 O          28.6605  -46.7875  -56.1443 O.2       1 UNK        -0.4888 
     67 H67        25.9728  -44.0225  -58.4660 H         1 UNK         0.0892 
     68 H68        26.8318  -42.5227  -58.8235 H         1 UNK         0.0892 
     69 H69        27.3083  -44.0222  -59.6223 H         1 UNK         0.0892 
     70 H70        29.1857  -44.8991  -58.7385 H         1 UNK         0.3107 
     71 H71        30.1815  -44.0322  -56.1927 H         1 UNK         0.0773 
     72 H72        32.1304  -45.5616  -56.7720 H         1 UNK         0.0680 
     73 H73        31.2820  -46.0615  -58.1930 H         1 UNK         0.0680 
     74 H74        31.3380  -41.9620  -57.1453 H         1 UNK         0.0650 
     75 H75        33.0203  -41.7665  -57.5669 H         1 UNK         0.0650 
     76 H76        34.3760  -44.1273  -56.5118 H         1 UNK         0.1397 
     77 H77        33.6324  -44.3140  -52.2969 H         1 UNK         0.1363 
     78 H78        31.1812  -41.8460  -54.8132 H         1 UNK         0.1355 
     79 H79        31.3867  -43.5134  -51.5085 H         1 UNK         0.0707 
     80 H80        32.1477  -41.9547  -51.5743 H         1 UNK         0.0707 
     81 H81        28.5185  -42.3745  -54.2266 H         1 UNK         0.1034 
     82 H82        29.6557  -43.6513  -53.9588 H         1 UNK         0.1034 
     83 H83        28.3366  -44.6874  -52.2771 H         1 UNK         0.0482 
     84 H84        25.5741  -42.5379  -53.1124 H         1 UNK         0.3460 
     85 H85        25.2817  -42.0658  -51.4575 H         1 UNK         0.3460 
     86 H86        27.0476  -44.0234  -54.7864 H         1 UNK         0.2989 
     87 H87        24.4262  -46.4594  -54.4161 H         1 UNK         0.0559 
     88 H88        24.1294  -43.9357  -54.4969 H         1 UNK         0.0848 
     89 H89        23.6177  -44.7601  -55.9506 H         1 UNK         0.0848 
     90 H90        25.1445  -43.8950  -55.9322 H         1 UNK         0.0848 
     91 H91        26.8289  -46.6180  -55.9452 H         1 UNK         0.3144 
     92 H92        25.2017  -48.6737  -58.4445 H         1 UNK         0.0727 
     93 H93        26.8807  -47.7039  -59.8848 H         1 UNK         0.0790 
     94 H94        27.3264  -46.5059  -58.6820 H         1 UNK         0.0790 
     95 H95        25.7475  -46.4300  -59.4623 H         1 UNK         0.0790 
     96 H96        27.7994  -48.2572  -57.0274 H         1 UNK         0.3215 
     97 H97        28.0112  -50.2559  -55.2716 H         1 UNK         0.0863 
     98 H98        27.9984  -52.7020  -57.1204 H         1 UNK         0.0808 
     99 H99        28.8833  -52.6078  -55.6005 H         1 UNK         0.0808 
    100 H100       27.1292  -52.5258  -55.6049 H         1 UNK         0.0808 
    101 H101       29.9192  -49.6556  -56.1555 H         1 UNK         0.3118 
    102 H102       31.8165  -50.6016  -58.9166 H         1 UNK         0.0546 
    103 H103       30.5885  -48.9790  -60.2615 H         1 UNK         0.0828 
    104 H104       31.9410  -48.1184  -59.5503 H         1 UNK         0.0828 
    105 H105       30.3120  -47.9348  -58.8838 H         1 UNK         0.0828 
    106 H106       31.5535  -49.3248  -56.3212 H         1 UNK         0.3005 
    107 H107       35.1103  -49.1241  -55.9813 H         1 UNK         0.1257 
    108 H108       34.3115  -46.7985  -56.3078 H         1 UNK         0.0775 
    109 H109       32.8503  -47.1532  -55.4048 H         1 UNK         0.0775 
    110 H110       35.9116  -44.9719  -53.3819 H         1 UNK         0.0840 
    111 H111       35.9454  -45.2673  -55.1004 H         1 UNK         0.0840 
    112 H112       32.6010  -49.4828  -54.4258 H         1 UNK         0.2987 
    113 H113       33.5383  -52.4500  -53.0267 H         1 UNK         0.0785 
    114 H114       34.0483  -51.4461  -50.7961 H         1 UNK         0.0798 
    115 H115       34.4994  -49.9256  -51.5709 H         1 UNK         0.0798 
    116 H116       35.4483  -51.3781  -51.8520 H         1 UNK         0.0798 
    117 H117       32.0863  -50.0922  -52.0463 H         1 UNK         0.3079 
    118 H118       29.0190  -51.1238  -53.5608 H         1 UNK         0.0794 
    119 H119       29.2447  -52.3744  -51.4188 H         1 UNK         0.0786 
    120 H120       28.2411  -50.9467  -51.2442 H         1 UNK         0.0786 
    121 H121       29.8998  -50.9386  -50.6441 H         1 UNK         0.0786 
    122 H122       29.2876  -48.8832  -52.0288 H         1 UNK         0.3032 
    123 H123       28.9276  -46.8402  -53.3062 H         1 UNK         0.1094 
    124 H124       31.9098  -46.6101  -52.5913 H         1 UNK         0.0794 
    125 H125       30.6304  -45.4959  -52.1152 H         1 UNK         0.0794 
    126 H126       30.6532  -47.1167  -51.4706 H         1 UNK         0.0794 
    127 H127       31.0887  -45.5192  -54.5835 H         1 UNK         0.3016 
@<TRIPOS>BOND
     1    1    2 1    
     2    1   67 1    
     3    1   68 1    
     4    1   69 1    
     5    2    3 2    
     6    2    4 am   BACKBONE|DICT|INTERRES
     7    4    5 1    
     8    4   70 1    
     9    5    6 1    
    10    5   65 1    
    11    5   71 1    
    12    6    7 1    
    13    6   72 1    
    14    6   73 1    
    15    7    8 1    
    16    8    9 1    
    17    8   74 1    
    18    8   75 1    
    19    9   10 ar   
    20    9   14 ar   
    21   10   11 ar   
    22   10   76 1    
    23   11   12 ar   
    24   11   48 1    
    25   12   13 ar   
    26   12   77 1    
    27   13   14 ar   
    28   13   15 1    
    29   14   78 1    
    30   15   16 1    
    31   15   79 1    
    32   15   80 1    
    33   16   17 1    
    34   17   18 1    
    35   17   81 1    
    36   17   82 1    
    37   18   19 1    
    38   18   22 1    
    39   18   83 1    
    40   19   20 am   BACKBONE|DICT|INTERRES
    41   19   21 2    
    42   20   84 1    
    43   20   85 1    
    44   22   23 am   BACKBONE|DICT|INTERRES
    45   22   86 1    
    46   23   24 2    
    47   23   25 1    
    48   25   26 1    
    49   25   27 1    
    50   25   87 1    
    51   26   88 1    
    52   26   89 1    
    53   26   90 1    
    54   27   28 am   BACKBONE|DICT|INTERRES
    55   27   91 1    
    56   28   29 2    
    57   28   30 1    
    58   30   31 1    
    59   30   32 1    
    60   30   92 1    
    61   31   93 1    
    62   31   94 1    
    63   31   95 1    
    64   32   33 am   BACKBONE|DICT|INTERRES
    65   32   96 1    
    66   33   34 2    
    67   33   35 1    
    68   35   36 1    
    69   35   37 1    
    70   35   97 1    
    71   36   98 1    
    72   36   99 1    
    73   36  100 1    
    74   37   38 am   BACKBONE|DICT|INTERRES
    75   37  101 1    
    76   38   39 2    
    77   38   40 1    
    78   40   41 1    
    79   40   42 1    
    80   40  102 1    
    81   41  103 1    
    82   41  104 1    
    83   41  105 1    
    84   42   43 am   BACKBONE|DICT|INTERRES
    85   42  106 1    
    86   43   44 2    
    87   43   45 1    
    88   45   46 1    
    89   45   49 1    
    90   45  107 1    
    91   46   47 1    
    92   46  108 1    
    93   46  109 1    
    94   47   48 1    
    95   48  110 1    
    96   48  111 1    
    97   49   50 am   BACKBONE|DICT|INTERRES
    98   49  112 1    
    99   50   51 2    
   100   50   52 1    
   101   52   53 1    
   102   52   54 1    
   103   52  113 1    
   104   53  114 1    
   105   53  115 1    
   106   53  116 1    
   107   54   55 am   BACKBONE|DICT|INTERRES
   108   54  117 1    
   109   55   56 2    
   110   55   57 1    
   111   57   58 1    
   112   57   59 1    
   113   57  118 1    
   114   58  119 1    
   115   58  120 1    
   116   58  121 1    
   117   59   60 am   BACKBONE|DICT|INTERRES
   118   59  122 1    
   119   60   61 2    
   120   60   62 1    
   121   62   63 1    
   122   62   64 1    
   123   62  123 1    
   124   63  124 1    
   125   63  125 1    
   126   63  126 1    
   127   64   65 am   BACKBONE|DICT|INTERRES
   128   64  127 1    
   129   65   66 2    
@<TRIPOS>SUBSTRUCTURE
     1 UNK         1 GROUP             0       ****    0 ROOT    
