@<TRIPOS>MOLECULE
3R134
127   129    1
SMALL
USER_CHARGES


@<TRIPOS>ATOM
      1 CA         33.9459  -46.1617  -49.0446 C.3       0 UNK        -0.1968 
      2 C          33.7994  -46.2987  -50.5519 C.2       0 UNK         0.4852 
      3 O          33.6202  -47.4104  -51.0482 O.2       0 UNK        -0.5359 
      4 N          33.8527  -45.1790  -51.2862 N.am      1 UNK        -0.4300 
      5 CA         33.7591  -45.1135  -52.7528 C.3       1 UNK         0.0863 
      6 C6         33.9984  -43.6632  -53.2627 C.3       11 UNK        -0.0953 
      7 S7         35.2722  -43.5848  -54.5636 S.3       11 UNK        -0.2369 
      8 C8         34.5120  -42.4516  -55.7691 C.3       11 UNK         0.0226 
      9 C9         33.3423  -43.1006  -56.4913 C.ar      11 UNK        -0.0699 
     10 C10        33.5739  -44.1415  -57.3925 C.ar      11 UNK        -0.0804 
     11 C11        32.5089  -44.7639  -58.0459 C.ar      11 UNK        -0.0871 
     12 C12        31.2014  -44.3325  -57.7977 C.ar      11 UNK        -0.1008 
     13 C13        30.9538  -43.2843  -56.9044 C.ar      11 UNK        -0.0735 
     14 C14        32.0336  -42.6659  -56.2625 C.ar      11 UNK        -0.0945 
     15 C15        29.5221  -42.8092  -56.6713 C.3       11 UNK         0.0169 
     16 S16        29.1363  -42.5218  -54.9133 S.3       11 UNK        -0.2669 
     17 C17        27.3701  -42.0599  -55.0112 C.3       11 UNK        -0.0850 
     18 CA         26.4809  -42.9430  -54.0906 C.3       10 UNK         0.0855 
     19 C          25.0153  -42.4219  -53.9698 C.2       10 UNK         0.5543 
     20 N          24.0318  -43.2795  -53.7264 N.am      10 UNK        -0.7343 
     21 O          24.7663  -41.2221  -54.0619 O.2       10 UNK        -0.5027 
     22 N          26.6217  -44.3812  -54.3840 N.am      10 UNK        -0.4495 
     23 C          26.1935  -45.0244  -55.4770 C.2       10 UNK         0.4903 
     24 O          25.5155  -44.5083  -56.3683 O.2       10 UNK        -0.4860 
     25 CA         26.5760  -46.5141  -55.5427 C.3       9 UNK         0.0227 
     26 CB         25.7596  -47.3387  -54.5322 C.3       9 UNK        -0.1964 
     27 N          26.4135  -47.1104  -56.8693 N.am      9 UNK        -0.4231 
     28 C          27.1117  -46.7836  -57.9653 C.2       9 UNK         0.5014 
     29 O          27.9471  -45.8795  -58.0166 O.2       9 UNK        -0.5270 
     30 CA         26.8740  -47.6826  -59.1861 C.3       8 UNK         0.0284 
     31 CB         27.7554  -47.3122  -60.3963 C.3       8 UNK        -0.1977 
     32 N          27.1242  -49.0718  -58.8002 N.am      8 UNK        -0.4342 
     33 C          26.4707  -50.1377  -59.2799 C.2       8 UNK         0.5039 
     34 O          25.5516  -50.0546  -60.0963 O.2       8 UNK        -0.5547 
     35 CA         26.9080  -51.5383  -58.8034 C.3       7 UNK         0.0281 
     36 CB         27.6106  -52.2947  -59.9439 C.3       7 UNK        -0.1963 
     37 N          27.7925  -51.5252  -57.6358 N.am      7 UNK        -0.4444 
     38 C          27.3964  -51.3278  -56.3712 C.2       7 UNK         0.5104 
     39 O          26.2212  -51.1720  -56.0390 O.2       7 UNK        -0.5100 
     40 CA         28.5035  -51.2746  -55.2972 C.3       6 UNK         0.0396 
     41 CB         28.6915  -52.6643  -54.6686 C.3       6 UNK        -0.1801 
     42 N          29.8053  -50.7708  -55.7660 N.am      6 UNK        -0.4747 
     43 C          30.0001  -49.5840  -56.3614 C.2       6 UNK         0.5012 
     44 O          29.0760  -48.8252  -56.6441 O.2       6 UNK        -0.5003 
     45 CA         31.4453  -49.1865  -56.7190 C.3       5 UNK         0.0782 
     46 C46        31.4996  -47.8160  -57.4378 C.3       11 UNK        -0.0868 
     47 S47        33.1439  -47.4548  -58.1275 S.3       11 UNK        -0.2515 
     48 C48        32.7820  -45.9062  -59.0125 C.3       11 UNK         0.0199 
     49 N          32.2691  -49.1961  -55.5093 N.am      5 UNK        -0.4607 
     50 C          32.9779  -50.2449  -55.0771 C.2       4 UNK         0.5031 
     51 O          33.0524  -51.3154  -55.6807 O.2       4 UNK        -0.5119 
     52 CA         33.6692  -50.0926  -53.7128 C.3       4 UNK         0.0263 
     53 CB         34.9067  -49.1862  -53.8180 C.3       4 UNK        -0.1967 
     54 N          32.7576  -49.5692  -52.6936 N.am      4 UNK        -0.4237 
     55 C          31.6540  -50.1946  -52.2560 C.2       3 UNK         0.4908 
     56 O          31.3327  -51.3340  -52.5919 O.2       3 UNK        -0.5102 
     57 CA         30.7460  -49.4156  -51.2938 C.3       3 UNK         0.0241 
     58 CB         31.2139  -49.5816  -49.8384 C.3       3 UNK        -0.1971 
     59 N          30.6942  -47.9947  -51.6424 N.am      3 UNK        -0.4139 
     60 C          29.8719  -47.4741  -52.5647 C.2       2 UNK         0.5016 
     61 O          29.0179  -48.1248  -53.1645 O.2       2 UNK        -0.5319 
     62 CA         29.9990  -45.9672  -52.8558 C.3       2 UNK         0.0286 
     63 CB         28.9734  -45.1874  -52.0161 C.3       2 UNK        -0.1963 
     64 N          31.3330  -45.4212  -52.5929 N.am      2 UNK        -0.4790 
     65 C          32.4400  -45.7164  -53.2909 C.2       1 UNK         0.5024 
     66 O          32.4553  -46.4830  -54.2546 O.2       1 UNK        -0.4888 
     67 H67        34.0843  -45.1247  -48.7395 H         1 UNK         0.0892 
     68 H68        33.0577  -46.5479  -48.5454 H         1 UNK         0.0892 
     69 H69        34.8061  -46.7350  -48.7003 H         1 UNK         0.0892 
     70 H70        34.0001  -44.2961  -50.8183 H         1 UNK         0.3107 
     71 H71        34.5595  -45.7587  -53.1220 H         1 UNK         0.0773 
     72 H72        34.3529  -43.0176  -52.4575 H         1 UNK         0.0680 
     73 H73        33.0755  -43.1941  -53.6088 H         1 UNK         0.0680 
     74 H74        35.2659  -42.1589  -56.5012 H         1 UNK         0.0650 
     75 H75        34.2040  -41.5359  -55.2619 H         1 UNK         0.0650 
     76 H76        34.5853  -44.4813  -57.5704 H         1 UNK         0.1397 
     77 H77        30.3741  -44.8167  -58.2994 H         1 UNK         0.1363 
     78 H78        31.8531  -41.8506  -55.5757 H         1 UNK         0.1355 
     79 H79        29.3640  -41.8851  -57.2288 H         1 UNK         0.0707 
     80 H80        28.8118  -43.5383  -57.0634 H         1 UNK         0.0707 
     81 H81        27.2950  -41.0091  -54.7259 H         1 UNK         0.1034 
     82 H82        27.0182  -42.1169  -56.0427 H         1 UNK         0.1034 
     83 H83        26.8739  -42.8279  -53.0799 H         1 UNK         0.0482 
     84 H84        24.2231  -44.2650  -53.6482 H         1 UNK         0.3460 
     85 H85        23.0878  -42.9378  -53.6383 H         1 UNK         0.3460 
     86 H86        27.1463  -44.9042  -53.7006 H         1 UNK         0.2989 
     87 H87        27.6333  -46.5985  -55.2814 H         1 UNK         0.0559 
     88 H88        25.9002  -46.9746  -53.5139 H         1 UNK         0.0848 
     89 H89        26.0700  -48.3845  -54.5371 H         1 UNK         0.0848 
     90 H90        24.6913  -47.3022  -54.7492 H         1 UNK         0.0848 
     91 H91        25.7545  -47.8714  -56.9400 H         1 UNK         0.3144 
     92 H92        25.8266  -47.5571  -59.4689 H         1 UNK         0.0727 
     93 H93        28.8164  -47.4175  -60.1664 H         1 UNK         0.0790 
     94 H94        27.5864  -46.2787  -60.7010 H         1 UNK         0.0790 
     95 H95        27.5340  -47.9440  -61.2566 H         1 UNK         0.0790 
     96 H96        27.8289  -49.1947  -58.0750 H         1 UNK         0.3215 
     97 H97        26.0000  -52.0862  -58.5415 H         1 UNK         0.0863 
     98 H98        27.8634  -53.3134  -59.6492 H         1 UNK         0.0808 
     99 H99        28.5290  -51.7951  -60.2548 H         1 UNK         0.0808 
    100 H100       26.9662  -52.3653  -60.8215 H         1 UNK         0.0808 
    101 H101       28.7799  -51.6463  -57.8079 H         1 UNK         0.3118 
    102 H102       28.1611  -50.5915  -54.5169 H         1 UNK         0.0546 
    103 H103       29.0857  -53.3832  -55.3877 H         1 UNK         0.0828 
    104 H104       27.7434  -53.0582  -54.2997 H         1 UNK         0.0828 
    105 H105       29.3736  -52.6295  -53.8200 H         1 UNK         0.0828 
    106 H106       30.6169  -51.3348  -55.5482 H         1 UNK         0.3005 
    107 H107       31.8089  -49.9403  -57.4212 H         1 UNK         0.1257 
    108 H108       31.2142  -47.0154  -56.7522 H         1 UNK         0.0775 
    109 H109       30.7873  -47.7824  -58.2650 H         1 UNK         0.0775 
    110 H110       33.6343  -45.6523  -59.6445 H         1 UNK         0.0840 
    111 H111       31.9373  -46.0559  -59.6871 H         1 UNK         0.0840 
    112 H112       32.2682  -48.3383  -54.9647 H         1 UNK         0.2987 
    113 H113       33.9968  -51.0830  -53.3899 H         1 UNK         0.0785 
    114 H114       35.6159  -49.5784  -54.5480 H         1 UNK         0.0798 
    115 H115       35.4278  -49.1153  -52.8630 H         1 UNK         0.0798 
    116 H116       34.6443  -48.1746  -54.1296 H         1 UNK         0.0798 
    117 H117       32.9977  -48.6699  -52.2822 H         1 UNK         0.3079 
    118 H118       29.7412  -49.8374  -51.3713 H         1 UNK         0.0794 
    119 H119       31.2123  -50.6334  -49.5493 H         1 UNK         0.0786 
    120 H120       30.5544  -49.0554  -49.1481 H         1 UNK         0.0786 
    121 H121       32.2262  -49.2062  -49.6873 H         1 UNK         0.0786 
    122 H122       31.4046  -47.4017  -51.2347 H         1 UNK         0.3032 
    123 H123       29.7756  -45.8190  -53.9155 H         1 UNK         0.1094 
    124 H124       28.9522  -44.1334  -52.2926 H         1 UNK         0.0794 
    125 H125       27.9675  -45.5862  -52.1498 H         1 UNK         0.0794 
    126 H126       29.1989  -45.2472  -50.9506 H         1 UNK         0.0794 
    127 H127       31.4194  -44.7922  -51.8076 H         1 UNK         0.3016 
@<TRIPOS>BOND
     1    1    2 1    
     2    1   67 1    
     3    1   68 1    
     4    1   69 1    
     5    2    3 2    
     6    2    4 am   BACKBONE|DICT|INTERRES
     7    4    5 1    
     8    4   70 1    
     9    5    6 1    
    10    5   65 1    
    11    5   71 1    
    12    6    7 1    
    13    6   72 1    
    14    6   73 1    
    15    7    8 1    
    16    8    9 1    
    17    8   74 1    
    18    8   75 1    
    19    9   10 ar   
    20    9   14 ar   
    21   10   11 ar   
    22   10   76 1    
    23   11   12 ar   
    24   11   48 1    
    25   12   13 ar   
    26   12   77 1    
    27   13   14 ar   
    28   13   15 1    
    29   14   78 1    
    30   15   16 1    
    31   15   79 1    
    32   15   80 1    
    33   16   17 1    
    34   17   18 1    
    35   17   81 1    
    36   17   82 1    
    37   18   19 1    
    38   18   22 1    
    39   18   83 1    
    40   19   20 am   BACKBONE|DICT|INTERRES
    41   19   21 2    
    42   20   84 1    
    43   20   85 1    
    44   22   23 am   BACKBONE|DICT|INTERRES
    45   22   86 1    
    46   23   24 2    
    47   23   25 1    
    48   25   26 1    
    49   25   27 1    
    50   25   87 1    
    51   26   88 1    
    52   26   89 1    
    53   26   90 1    
    54   27   28 am   BACKBONE|DICT|INTERRES
    55   27   91 1    
    56   28   29 2    
    57   28   30 1    
    58   30   31 1    
    59   30   32 1    
    60   30   92 1    
    61   31   93 1    
    62   31   94 1    
    63   31   95 1    
    64   32   33 am   BACKBONE|DICT|INTERRES
    65   32   96 1    
    66   33   34 2    
    67   33   35 1    
    68   35   36 1    
    69   35   37 1    
    70   35   97 1    
    71   36   98 1    
    72   36   99 1    
    73   36  100 1    
    74   37   38 am   BACKBONE|DICT|INTERRES
    75   37  101 1    
    76   38   39 2    
    77   38   40 1    
    78   40   41 1    
    79   40   42 1    
    80   40  102 1    
    81   41  103 1    
    82   41  104 1    
    83   41  105 1    
    84   42   43 am   BACKBONE|DICT|INTERRES
    85   42  106 1    
    86   43   44 2    
    87   43   45 1    
    88   45   46 1    
    89   45   49 1    
    90   45  107 1    
    91   46   47 1    
    92   46  108 1    
    93   46  109 1    
    94   47   48 1    
    95   48  110 1    
    96   48  111 1    
    97   49   50 am   BACKBONE|DICT|INTERRES
    98   49  112 1    
    99   50   51 2    
   100   50   52 1    
   101   52   53 1    
   102   52   54 1    
   103   52  113 1    
   104   53  114 1    
   105   53  115 1    
   106   53  116 1    
   107   54   55 am   BACKBONE|DICT|INTERRES
   108   54  117 1    
   109   55   56 2    
   110   55   57 1    
   111   57   58 1    
   112   57   59 1    
   113   57  118 1    
   114   58  119 1    
   115   58  120 1    
   116   58  121 1    
   117   59   60 am   BACKBONE|DICT|INTERRES
   118   59  122 1    
   119   60   61 2    
   120   60   62 1    
   121   62   63 1    
   122   62   64 1    
   123   62  123 1    
   124   63  124 1    
   125   63  125 1    
   126   63  126 1    
   127   64   65 am   BACKBONE|DICT|INTERRES
   128   64  127 1    
   129   65   66 2    
@<TRIPOS>SUBSTRUCTURE
     1 UNK         1 GROUP             0       ****    0 ROOT    
