@<TRIPOS>MOLECULE
3R134
127   129    1
SMALL
USER_CHARGES


@<TRIPOS>ATOM
      1 CA         29.9301  -45.7742  -52.1849 C.3       0 UNK        -0.1968 
      2 C          31.2828  -45.6287  -51.5084 C.2       0 UNK         0.4852 
      3 O          31.4417  -46.0441  -50.3602 O.2       0 UNK        -0.5359 
      4 N          32.2597  -45.0427  -52.2128 N.am      1 UNK        -0.4300 
      5 CA         33.6167  -44.7828  -51.7087 C.3       1 UNK         0.0863 
      6 C6         34.2985  -43.6226  -52.4767 C.3       11 UNK        -0.0953 
      7 S7         33.3799  -42.0556  -52.2740 S.3       11 UNK        -0.2369 
      8 C8         33.0548  -41.5425  -53.9911 C.3       11 UNK         0.0226 
      9 C9         32.1300  -42.5013  -54.7279 C.ar      11 UNK        -0.0699 
     10 C10        32.6344  -43.3132  -55.7472 C.ar      11 UNK        -0.0804 
     11 C11        31.7958  -44.1951  -56.4329 C.ar      11 UNK        -0.0871 
     12 C12        30.4383  -44.2530  -56.1025 C.ar      11 UNK        -0.1008 
     13 C13        29.9170  -43.4331  -55.0975 C.ar      11 UNK        -0.0735 
     14 C14        30.7690  -42.5624  -54.4094 C.ar      11 UNK        -0.0945 
     15 C15        28.4355  -43.4976  -54.7494 C.3       11 UNK         0.0169 
     16 S16        27.5282  -42.0310  -55.3336 S.3       11 UNK        -0.2669 
     17 C17        27.6151  -42.2178  -57.1483 C.3       11 UNK        -0.0850 
     18 CA         26.2263  -42.4439  -57.7998 C.3       10 UNK         0.0855 
     19 C          26.3276  -42.3555  -59.3525 C.2       10 UNK         0.5543 
     20 N          26.0119  -43.4023  -60.1056 N.am      10 UNK        -0.7343 
     21 O          26.6965  -41.3108  -59.8834 O.2       10 UNK        -0.5027 
     22 N          25.5770  -43.6654  -57.2920 N.am      10 UNK        -0.4495 
     23 C          24.2700  -43.9375  -57.3795 C.2       10 UNK         0.4903 
     24 O          23.4410  -43.1622  -57.8588 O.2       10 UNK        -0.4860 
     25 CA         23.8314  -45.3281  -56.8793 C.3       9 UNK         0.0227 
     26 CB         22.3104  -45.5470  -56.9893 C.3       9 UNK        -0.1964 
     27 N          24.5215  -46.3947  -57.6124 N.am      9 UNK        -0.4231 
     28 C          25.7563  -46.8350  -57.3428 C.2       9 UNK         0.5014 
     29 O          26.4515  -46.3915  -56.4262 O.2       9 UNK        -0.5270 
     30 CA         26.3321  -47.8921  -58.2918 C.3       8 UNK         0.0284 
     31 CB         27.4132  -47.2682  -59.1912 C.3       8 UNK        -0.1977 
     32 N          26.9275  -48.9699  -57.5064 N.am      8 UNK        -0.4342 
     33 C          26.3690  -50.1739  -57.3137 C.2       8 UNK         0.5039 
     34 O          25.3046  -50.5196  -57.8293 O.2       8 UNK        -0.5547 
     35 CA         27.1055  -51.1782  -56.4036 C.3       7 UNK         0.0281 
     36 CB         27.8645  -52.2134  -57.2493 C.3       7 UNK        -0.1963 
     37 N          28.0403  -50.5452  -55.4738 N.am      7 UNK        -0.4444 
     38 C          27.6827  -49.7813  -54.4331 C.2       7 UNK         0.5104 
     39 O          26.5168  -49.6374  -54.0637 O.2       7 UNK        -0.5100 
     40 CA         28.8026  -49.0303  -53.6876 C.3       6 UNK         0.0396 
     41 CB         29.0694  -49.6822  -52.3212 C.3       6 UNK        -0.1801 
     42 N          30.0736  -48.9179  -54.4134 N.am      6 UNK        -0.4747 
     43 C          30.2582  -48.3390  -55.6092 C.2       6 UNK         0.5012 
     44 O          29.3520  -47.8510  -56.2817 O.2       6 UNK        -0.5003 
     45 CA         31.6934  -48.3372  -56.1642 C.3       5 UNK         0.0782 
     46 C46        32.5091  -47.1552  -55.5819 C.3       11 UNK        -0.0868 
     47 S47        33.5315  -46.3342  -56.8435 S.3       11 UNK        -0.2515 
     48 C48        32.3620  -45.1052  -57.5143 C.3       11 UNK         0.0199 
     49 N          32.3600  -49.6188  -55.9244 N.am      5 UNK        -0.4607 
     50 C          32.0606  -50.7730  -56.5327 C.2       4 UNK         0.5031 
     51 O          31.2068  -50.8820  -57.4116 O.2       4 UNK        -0.5119 
     52 CA         32.8392  -52.0170  -56.0700 C.3       4 UNK         0.0263 
     53 CB         34.1195  -52.1891  -56.9029 C.3       4 UNK        -0.1967 
     54 N          33.1867  -51.9647  -54.6461 N.am      4 UNK        -0.4237 
     55 C          32.3040  -52.1292  -53.6501 C.2       3 UNK         0.4908 
     56 O          31.1202  -52.4185  -53.8250 O.2       3 UNK        -0.5102 
     57 CA         32.8215  -51.9008  -52.2175 C.3       3 UNK         0.0241 
     58 CB         33.4389  -53.1909  -51.6539 C.3       3 UNK        -0.1971 
     59 N          33.7857  -50.7979  -52.0957 N.am      3 UNK        -0.4139 
     60 C          33.5143  -49.5204  -52.3941 C.2       2 UNK         0.5016 
     61 O          32.4338  -49.1432  -52.8563 O.2       2 UNK        -0.5319 
     62 CA         34.6354  -48.4948  -52.1833 C.3       2 UNK         0.0286 
     63 CB         35.7116  -48.6064  -53.2801 C.3       2 UNK        -0.1963 
     64 N          34.0256  -47.1686  -52.2088 N.am      2 UNK        -0.4790 
     65 C          34.5114  -46.0459  -51.6685 C.2       1 UNK         0.5024 
     66 O          35.6190  -45.9830  -51.1326 O.2       1 UNK        -0.4888 
     67 H67        30.0252  -45.8485  -53.2681 H         1 UNK         0.0892 
     68 H68        29.4261  -46.6700  -51.8261 H         1 UNK         0.0892 
     69 H69        29.3018  -44.9174  -51.9459 H         1 UNK         0.0892 
     70 H70        32.0652  -44.6811  -53.1365 H         1 UNK         0.3107 
     71 H71        33.5231  -44.4651  -50.6676 H         1 UNK         0.0773 
     72 H72        34.4058  -43.8692  -53.5339 H         1 UNK         0.0680 
     73 H73        35.3093  -43.4524  -52.1013 H         1 UNK         0.0680 
     74 H74        34.0054  -41.4355  -54.5161 H         1 UNK         0.0650 
     75 H75        32.6013  -40.5504  -53.9790 H         1 UNK         0.0650 
     76 H76        33.6850  -43.2718  -56.0016 H         1 UNK         0.1397 
     77 H77        29.7861  -44.9419  -56.6237 H         1 UNK         0.1363 
     78 H78        30.3716  -41.9280  -53.6287 H         1 UNK         0.1355 
     79 H79        28.3221  -43.5634  -53.6672 H         1 UNK         0.0707 
     80 H80        27.9757  -44.3985  -55.1594 H         1 UNK         0.0707 
     81 H81        28.0778  -41.3089  -57.5381 H         1 UNK         0.1034 
     82 H82        28.2904  -43.0309  -57.4159 H         1 UNK         0.1034 
     83 H83        25.5938  -41.6041  -57.5052 H         1 UNK         0.0482 
     84 H84        26.0784  -43.3272  -61.1084 H         1 UNK         0.3460 
     85 H85        25.6866  -44.2542  -59.6811 H         1 UNK         0.3460 
     86 H86        26.1819  -44.3745  -56.8928 H         1 UNK         0.2989 
     87 H87        24.0968  -45.3903  -55.8216 H         1 UNK         0.0559 
     88 H88        21.7651  -44.7885  -56.4259 H         1 UNK         0.0848 
     89 H89        22.0189  -46.5170  -56.5862 H         1 UNK         0.0848 
     90 H90        21.9657  -45.4955  -58.0229 H         1 UNK         0.0848 
     91 H91        24.0287  -46.7859  -58.4032 H         1 UNK         0.3144 
     92 H92        25.5365  -48.2777  -58.9328 H         1 UNK         0.0727 
     93 H93        27.8432  -48.0099  -59.8645 H         1 UNK         0.0790 
     94 H94        28.2275  -46.8369  -58.6069 H         1 UNK         0.0790 
     95 H95        26.9977  -46.4714  -59.8091 H         1 UNK         0.0790 
     96 H96        27.7665  -48.7153  -56.9895 H         1 UNK         0.3215 
     97 H97        26.3489  -51.7037  -55.8167 H         1 UNK         0.0863 
     98 H98        28.3542  -52.9589  -56.6223 H         1 UNK         0.0808 
     99 H99        28.6275  -51.7439  -57.8715 H         1 UNK         0.0808 
    100 H100       27.1846  -52.7465  -57.9153 H         1 UNK         0.0808 
    101 H101       29.0240  -50.6114  -55.6956 H         1 UNK         0.3118 
    102 H102       28.4368  -48.0159  -53.5220 H         1 UNK         0.0546 
    103 H103       29.4340  -50.7041  -52.4304 H         1 UNK         0.0828 
    104 H104       28.1593  -49.7224  -51.7212 H         1 UNK         0.0828 
    105 H105       29.8106  -49.1245  -51.7485 H         1 UNK         0.0828 
    106 H106       30.9012  -49.2367  -53.9128 H         1 UNK         0.3005 
    107 H107       31.5938  -48.2129  -57.2454 H         1 UNK         0.1257 
    108 H108       33.1823  -47.4969  -54.7989 H         1 UNK         0.0775 
    109 H109       31.8809  -46.4147  -55.0873 H         1 UNK         0.0775 
    110 H110       32.8742  -44.4990  -58.2627 H         1 UNK         0.0840 
    111 H111       31.5612  -45.6277  -58.0401 H         1 UNK         0.0840 
    112 H112       33.0413  -49.6324  -55.1815 H         1 UNK         0.2987 
    113 H113       32.2019  -52.8881  -56.2387 H         1 UNK         0.0785 
    114 H114       33.8857  -52.2538  -57.9666 H         1 UNK         0.0798 
    115 H115       34.6482  -53.1037  -56.6334 H         1 UNK         0.0798 
    116 H116       34.8061  -51.3518  -56.7709 H         1 UNK         0.0798 
    117 H117       34.1455  -51.7523  -54.4118 H         1 UNK         0.3079 
    118 H118       31.9563  -51.6433  -51.6024 H         1 UNK         0.0794 
    119 H119       33.7085  -53.0764  -50.6038 H         1 UNK         0.0786 
    120 H120       34.3353  -53.4849  -52.2015 H         1 UNK         0.0786 
    121 H121       32.7328  -54.0205  -51.7154 H         1 UNK         0.0786 
    122 H122       34.6975  -51.0317  -51.7287 H         1 UNK         0.3032 
    123 H123       35.0820  -48.6657  -51.2011 H         1 UNK         0.1094 
    124 H124       35.2977  -48.4511  -54.2767 H         1 UNK         0.0794 
    125 H125       36.5035  -47.8718  -53.1335 H         1 UNK         0.0794 
    126 H126       36.1839  -49.5893  -53.2717 H         1 UNK         0.0794 
    127 H127       33.0752  -47.1717  -52.5586 H         1 UNK         0.3016 
@<TRIPOS>BOND
     1    1    2 1    
     2    1   67 1    
     3    1   68 1    
     4    1   69 1    
     5    2    3 2    
     6    2    4 am   BACKBONE|DICT|INTERRES
     7    4    5 1    
     8    4   70 1    
     9    5    6 1    
    10    5   65 1    
    11    5   71 1    
    12    6    7 1    
    13    6   72 1    
    14    6   73 1    
    15    7    8 1    
    16    8    9 1    
    17    8   74 1    
    18    8   75 1    
    19    9   10 ar   
    20    9   14 ar   
    21   10   11 ar   
    22   10   76 1    
    23   11   12 ar   
    24   11   48 1    
    25   12   13 ar   
    26   12   77 1    
    27   13   14 ar   
    28   13   15 1    
    29   14   78 1    
    30   15   16 1    
    31   15   79 1    
    32   15   80 1    
    33   16   17 1    
    34   17   18 1    
    35   17   81 1    
    36   17   82 1    
    37   18   19 1    
    38   18   22 1    
    39   18   83 1    
    40   19   20 am   BACKBONE|DICT|INTERRES
    41   19   21 2    
    42   20   84 1    
    43   20   85 1    
    44   22   23 am   BACKBONE|DICT|INTERRES
    45   22   86 1    
    46   23   24 2    
    47   23   25 1    
    48   25   26 1    
    49   25   27 1    
    50   25   87 1    
    51   26   88 1    
    52   26   89 1    
    53   26   90 1    
    54   27   28 am   BACKBONE|DICT|INTERRES
    55   27   91 1    
    56   28   29 2    
    57   28   30 1    
    58   30   31 1    
    59   30   32 1    
    60   30   92 1    
    61   31   93 1    
    62   31   94 1    
    63   31   95 1    
    64   32   33 am   BACKBONE|DICT|INTERRES
    65   32   96 1    
    66   33   34 2    
    67   33   35 1    
    68   35   36 1    
    69   35   37 1    
    70   35   97 1    
    71   36   98 1    
    72   36   99 1    
    73   36  100 1    
    74   37   38 am   BACKBONE|DICT|INTERRES
    75   37  101 1    
    76   38   39 2    
    77   38   40 1    
    78   40   41 1    
    79   40   42 1    
    80   40  102 1    
    81   41  103 1    
    82   41  104 1    
    83   41  105 1    
    84   42   43 am   BACKBONE|DICT|INTERRES
    85   42  106 1    
    86   43   44 2    
    87   43   45 1    
    88   45   46 1    
    89   45   49 1    
    90   45  107 1    
    91   46   47 1    
    92   46  108 1    
    93   46  109 1    
    94   47   48 1    
    95   48  110 1    
    96   48  111 1    
    97   49   50 am   BACKBONE|DICT|INTERRES
    98   49  112 1    
    99   50   51 2    
   100   50   52 1    
   101   52   53 1    
   102   52   54 1    
   103   52  113 1    
   104   53  114 1    
   105   53  115 1    
   106   53  116 1    
   107   54   55 am   BACKBONE|DICT|INTERRES
   108   54  117 1    
   109   55   56 2    
   110   55   57 1    
   111   57   58 1    
   112   57   59 1    
   113   57  118 1    
   114   58  119 1    
   115   58  120 1    
   116   58  121 1    
   117   59   60 am   BACKBONE|DICT|INTERRES
   118   59  122 1    
   119   60   61 2    
   120   60   62 1    
   121   62   63 1    
   122   62   64 1    
   123   62  123 1    
   124   63  124 1    
   125   63  125 1    
   126   63  126 1    
   127   64   65 am   BACKBONE|DICT|INTERRES
   128   64  127 1    
   129   65   66 2    
@<TRIPOS>SUBSTRUCTURE
     1 UNK         1 GROUP             0       ****    0 ROOT    
