@<TRIPOS>MOLECULE
3R134
127   129    1
SMALL
USER_CHARGES


@<TRIPOS>ATOM
      1 CA         30.8591  -44.6514  -48.5956 C.3       0 UNK        -0.1968 
      2 C          32.2411  -45.1439  -48.9992 C.2       0 UNK         0.4852 
      3 O          33.0800  -45.3900  -48.1315 O.2       0 UNK        -0.5359 
      4 N          32.4810  -45.2903  -50.3095 N.am      1 UNK        -0.4300 
      5 CA         33.7527  -45.7517  -50.8827 C.3       1 UNK         0.0863 
      6 C6         33.9007  -45.3229  -52.3655 C.3       11 UNK        -0.0953 
      7 S7         34.2626  -43.5420  -52.5211 S.3       11 UNK        -0.2369 
      8 C8         32.6184  -42.8086  -52.8295 C.3       11 UNK         0.0226 
      9 C9         31.9838  -43.1668  -54.1731 C.ar      11 UNK        -0.0699 
     10 C10        32.7545  -43.3805  -55.3236 C.ar      11 UNK        -0.0804 
     11 C11        32.1465  -43.6707  -56.5489 C.ar      11 UNK        -0.0871 
     12 C12        30.7522  -43.7248  -56.6205 C.ar      11 UNK        -0.1008 
     13 C13        29.9659  -43.5127  -55.4865 C.ar      11 UNK        -0.0735 
     14 C14        30.5893  -43.2336  -54.2668 C.ar      11 UNK        -0.0945 
     15 C15        28.4485  -43.6207  -55.5682 C.3       11 UNK         0.0169 
     16 S16        27.6893  -42.2076  -56.4300 S.3       11 UNK        -0.2669 
     17 C17        27.5333  -42.8336  -58.1425 C.3       11 UNK        -0.0850 
     18 CA         26.1203  -43.4024  -58.4405 C.3       10 UNK         0.0855 
     19 C          25.9072  -43.6626  -59.9621 C.2       10 UNK         0.5543 
     20 N          25.4556  -44.8358  -60.3920 N.am      10 UNK        -0.7343 
     21 O          26.1457  -42.7722  -60.7744 O.2       10 UNK        -0.5027 
     22 N          25.8316  -44.5718  -57.5970 N.am      10 UNK        -0.4495 
     23 C          24.6255  -44.9017  -57.1241 C.2       10 UNK         0.4903 
     24 O          23.6114  -44.2221  -57.2921 O.2       10 UNK        -0.4860 
     25 CA         24.5518  -46.2235  -56.3347 C.3       9 UNK         0.0227 
     26 CB         23.1077  -46.7416  -56.1674 C.3       9 UNK        -0.1964 
     27 N          25.4181  -47.2804  -56.8767 N.am      9 UNK        -0.4231 
     28 C          25.3786  -47.8094  -58.1121 C.2       9 UNK         0.5014 
     29 O          24.6292  -47.3984  -58.9996 O.2       9 UNK        -0.5270 
     30 CA         26.3373  -48.9729  -58.4449 C.3       8 UNK         0.0284 
     31 CB         27.3259  -48.5593  -59.5488 C.3       8 UNK        -0.1977 
     32 N          27.0907  -49.4844  -57.2971 N.am      8 UNK        -0.4342 
     33 C          26.5747  -50.1840  -56.2767 C.2       8 UNK         0.5039 
     34 O          25.4052  -50.5664  -56.2318 O.2       8 UNK        -0.5547 
     35 CA         27.5047  -50.4620  -55.0802 C.3       7 UNK         0.0281 
     36 CB         28.1728  -51.8370  -55.2271 C.3       7 UNK        -0.1963 
     37 N          28.5309  -49.4304  -54.8788 N.am      7 UNK        -0.4444 
     38 C          28.2776  -48.1397  -54.6128 C.2       7 UNK         0.5104 
     39 O          27.1447  -47.6702  -54.5064 O.2       7 UNK        -0.5100 
     40 CA         29.4901  -47.2057  -54.4963 C.3       6 UNK         0.0396 
     41 CB         30.1150  -47.2854  -53.0952 C.3       6 UNK        -0.1801 
     42 N          30.4966  -47.4883  -55.5215 N.am      6 UNK        -0.4747 
     43 C          30.3544  -47.1880  -56.8226 C.2       6 UNK         0.5012 
     44 O          29.3691  -46.6125  -57.2866 O.2       6 UNK        -0.5003 
     45 CA         31.4760  -47.6676  -57.7707 C.3       5 UNK         0.0782 
     46 C46        32.6929  -46.7064  -57.7789 C.3       11 UNK        -0.0868 
     47 S47        32.4366  -45.2602  -58.8579 S.3       11 UNK        -0.2515 
     48 C48        33.0047  -43.8889  -57.7926 C.3       11 UNK         0.0199 
     49 N          31.8964  -49.0390  -57.4708 N.am      5 UNK        -0.4607 
     50 C          31.1128  -50.1232  -57.5487 C.2       4 UNK         0.5031 
     51 O          29.9466  -50.0993  -57.9389 O.2       4 UNK        -0.5119 
     52 CA         31.7218  -51.4519  -57.0621 C.3       4 UNK         0.0263 
     53 CB         32.4009  -52.1858  -58.2290 C.3       4 UNK        -0.1967 
     54 N          32.6743  -51.3085  -55.9524 N.am      4 UNK        -0.4237 
     55 C          32.4140  -50.7151  -54.7786 C.2       3 UNK         0.4908 
     56 O          31.3274  -50.2009  -54.4955 O.2       3 UNK        -0.5102 
     57 CA         33.5746  -50.6419  -53.7794 C.3       3 UNK         0.0241 
     58 CB         34.7398  -49.7957  -54.3293 C.3       3 UNK        -0.1971 
     59 N          33.0937  -50.0370  -52.5418 N.am      3 UNK        -0.4139 
     60 C          33.5221  -50.3202  -51.3087 C.2       2 UNK         0.5016 
     61 O          34.3829  -51.1667  -51.0573 O.2       2 UNK        -0.5319 
     62 CA         32.8868  -49.4861  -50.1768 C.3       2 UNK         0.0286 
     63 CB         33.5125  -49.7748  -48.7952 C.3       2 UNK        -0.1963 
     64 N          32.9013  -48.0388  -50.4507 N.am      2 UNK        -0.4790 
     65 C          33.9766  -47.2714  -50.7083 C.2       1 UNK         0.5024 
     66 O          35.1248  -47.7083  -50.7955 O.2       1 UNK        -0.4888 
     67 H67        30.9422  -43.7196  -48.0369 H         1 UNK         0.0892 
     68 H68        30.3696  -45.3878  -47.9588 H         1 UNK         0.0892 
     69 H69        30.2196  -44.4717  -49.4597 H         1 UNK         0.0892 
     70 H70        31.7562  -45.0623  -50.9733 H         1 UNK         0.3107 
     71 H71        34.5596  -45.2766  -50.3194 H         1 UNK         0.0773 
     72 H72        33.0188  -45.5815  -52.9514 H         1 UNK         0.0680 
     73 H73        34.7351  -45.8450  -52.8383 H         1 UNK         0.0680 
     74 H74        31.9548  -43.0837  -52.0094 H         1 UNK         0.0650 
     75 H75        32.7200  -41.7236  -52.7855 H         1 UNK         0.0650 
     76 H76        33.8320  -43.3121  -55.2699 H         1 UNK         0.1397 
     77 H77        30.2803  -43.9515  -57.5637 H         1 UNK         0.1363 
     78 H78        29.9847  -43.0621  -53.3867 H         1 UNK         0.1355 
     79 H79        28.0210  -43.6786  -54.5661 H         1 UNK         0.0707 
     80 H80        28.1725  -44.5517  -56.0621 H         1 UNK         0.0707 
     81 H81        28.2911  -43.5878  -58.3509 H         1 UNK         0.1034 
     82 H82        27.7566  -41.9960  -58.8062 H         1 UNK         0.1034 
     83 H83        25.4049  -42.6173  -58.1884 H         1 UNK         0.0482 
     84 H84        25.3215  -44.9735  -61.3809 H         1 UNK         0.3460 
     85 H85        25.2114  -45.5780  -59.7466 H         1 UNK         0.3460 
     86 H86        26.5993  -45.2081  -57.4405 H         1 UNK         0.2989 
     87 H87        24.9375  -46.0003  -55.3389 H         1 UNK         0.0559 
     88 H88        23.0824  -47.6636  -55.5865 H         1 UNK         0.0848 
     89 H89        22.6351  -46.9388  -57.1302 H         1 UNK         0.0848 
     90 H90        22.4874  -46.0132  -55.6437 H         1 UNK         0.0848 
     91 H91        26.0912  -47.6552  -56.2147 H         1 UNK         0.3144 
     92 H92        25.7229  -49.7890  -58.8303 H         1 UNK         0.0727 
     93 H93        27.9719  -49.3894  -59.8352 H         1 UNK         0.0790 
     94 H94        27.9625  -47.7330  -59.2324 H         1 UNK         0.0790 
     95 H95        26.7989  -48.2367  -60.4477 H         1 UNK         0.0790 
     96 H96        28.0876  -49.2954  -57.2891 H         1 UNK         0.3215 
     97 H97        26.8856  -50.4782  -54.1807 H         1 UNK         0.0863 
     98 H98        28.8779  -52.0322  -54.4188 H         1 UNK         0.0808 
     99 H99        28.7062  -51.9213  -56.1728 H         1 UNK         0.0808 
    100 H100       27.4265  -52.6322  -55.2082 H         1 UNK         0.0808 
    101 H101       29.5024  -49.7298  -54.9103 H         1 UNK         0.3118 
    102 H102       29.1370  -46.1847  -54.6383 H         1 UNK         0.0546 
    103 H103       29.3837  -47.0165  -52.3317 H         1 UNK         0.0828 
    104 H104       30.9499  -46.5943  -52.9987 H         1 UNK         0.0828 
    105 H105       30.4712  -48.2880  -52.8614 H         1 UNK         0.0828 
    106 H106       31.2875  -48.0497  -55.2386 H         1 UNK         0.3005 
    107 H107       31.0479  -47.6937  -58.7759 H         1 UNK         0.1257 
    108 H108       33.5739  -47.2190  -58.1689 H         1 UNK         0.0775 
    109 H109       32.9601  -46.3930  -56.7676 H         1 UNK         0.0775 
    110 H110       34.0442  -44.0734  -57.5165 H         1 UNK         0.0840 
    111 H111       33.0013  -42.9691  -58.3788 H         1 UNK         0.0840 
    112 H112       32.8438  -49.1606  -57.1463 H         1 UNK         0.2987 
    113 H113       30.9041  -52.0771  -56.7030 H         1 UNK         0.0785 
    114 H114       33.2586  -51.6314  -58.6123 H         1 UNK         0.0798 
    115 H115       31.7062  -52.3256  -59.0588 H         1 UNK         0.0798 
    116 H116       32.7460  -53.1756  -57.9297 H         1 UNK         0.0798 
    117 H117       33.5928  -51.7026  -56.0988 H         1 UNK         0.3079 
    118 H118       33.9148  -51.6615  -53.5859 H         1 UNK         0.0794 
    119 H119       34.4207  -48.7821  -54.5762 H         1 UNK         0.0786 
    120 H120       35.1675  -50.2361  -55.2304 H         1 UNK         0.0786 
    121 H121       35.5468  -49.7178  -53.6000 H         1 UNK         0.0786 
    122 H122       32.3248  -49.3929  -52.6625 H         1 UNK         0.3032 
    123 H123       31.8391  -49.7885  -50.1301 H         1 UNK         0.1094 
    124 H124       34.5753  -49.5313  -48.7725 H         1 UNK         0.0794 
    125 H125       33.0211  -49.2004  -48.0098 H         1 UNK         0.0794 
    126 H126       33.4149  -50.8293  -48.5341 H         1 UNK         0.0794 
    127 H127       32.0067  -47.5738  -50.3919 H         1 UNK         0.3016 
@<TRIPOS>BOND
     1    1    2 1    
     2    1   67 1    
     3    1   68 1    
     4    1   69 1    
     5    2    3 2    
     6    2    4 am   BACKBONE|DICT|INTERRES
     7    4    5 1    
     8    4   70 1    
     9    5    6 1    
    10    5   65 1    
    11    5   71 1    
    12    6    7 1    
    13    6   72 1    
    14    6   73 1    
    15    7    8 1    
    16    8    9 1    
    17    8   74 1    
    18    8   75 1    
    19    9   10 ar   
    20    9   14 ar   
    21   10   11 ar   
    22   10   76 1    
    23   11   12 ar   
    24   11   48 1    
    25   12   13 ar   
    26   12   77 1    
    27   13   14 ar   
    28   13   15 1    
    29   14   78 1    
    30   15   16 1    
    31   15   79 1    
    32   15   80 1    
    33   16   17 1    
    34   17   18 1    
    35   17   81 1    
    36   17   82 1    
    37   18   19 1    
    38   18   22 1    
    39   18   83 1    
    40   19   20 am   BACKBONE|DICT|INTERRES
    41   19   21 2    
    42   20   84 1    
    43   20   85 1    
    44   22   23 am   BACKBONE|DICT|INTERRES
    45   22   86 1    
    46   23   24 2    
    47   23   25 1    
    48   25   26 1    
    49   25   27 1    
    50   25   87 1    
    51   26   88 1    
    52   26   89 1    
    53   26   90 1    
    54   27   28 am   BACKBONE|DICT|INTERRES
    55   27   91 1    
    56   28   29 2    
    57   28   30 1    
    58   30   31 1    
    59   30   32 1    
    60   30   92 1    
    61   31   93 1    
    62   31   94 1    
    63   31   95 1    
    64   32   33 am   BACKBONE|DICT|INTERRES
    65   32   96 1    
    66   33   34 2    
    67   33   35 1    
    68   35   36 1    
    69   35   37 1    
    70   35   97 1    
    71   36   98 1    
    72   36   99 1    
    73   36  100 1    
    74   37   38 am   BACKBONE|DICT|INTERRES
    75   37  101 1    
    76   38   39 2    
    77   38   40 1    
    78   40   41 1    
    79   40   42 1    
    80   40  102 1    
    81   41  103 1    
    82   41  104 1    
    83   41  105 1    
    84   42   43 am   BACKBONE|DICT|INTERRES
    85   42  106 1    
    86   43   44 2    
    87   43   45 1    
    88   45   46 1    
    89   45   49 1    
    90   45  107 1    
    91   46   47 1    
    92   46  108 1    
    93   46  109 1    
    94   47   48 1    
    95   48  110 1    
    96   48  111 1    
    97   49   50 am   BACKBONE|DICT|INTERRES
    98   49  112 1    
    99   50   51 2    
   100   50   52 1    
   101   52   53 1    
   102   52   54 1    
   103   52  113 1    
   104   53  114 1    
   105   53  115 1    
   106   53  116 1    
   107   54   55 am   BACKBONE|DICT|INTERRES
   108   54  117 1    
   109   55   56 2    
   110   55   57 1    
   111   57   58 1    
   112   57   59 1    
   113   57  118 1    
   114   58  119 1    
   115   58  120 1    
   116   58  121 1    
   117   59   60 am   BACKBONE|DICT|INTERRES
   118   59  122 1    
   119   60   61 2    
   120   60   62 1    
   121   62   63 1    
   122   62   64 1    
   123   62  123 1    
   124   63  124 1    
   125   63  125 1    
   126   63  126 1    
   127   64   65 am   BACKBONE|DICT|INTERRES
   128   64  127 1    
   129   65   66 2    
@<TRIPOS>SUBSTRUCTURE
     1 UNK         1 GROUP             0       ****    0 ROOT    
