@<TRIPOS>MOLECULE
3R134
127   129    1
SMALL
USER_CHARGES


@<TRIPOS>ATOM
      1 CA         30.2173  -43.9831  -47.4804 C.3       0 UNK        -0.1968 
      2 C          31.2964  -44.6686  -48.3060 C.2       0 UNK         0.4852 
      3 O          32.1475  -45.3604  -47.7444 O.2       0 UNK        -0.5359 
      4 N          31.2720  -44.4756  -49.6315 N.am      1 UNK        -0.4300 
      5 CA         32.1838  -45.1092  -50.5873 C.3       1 UNK         0.0863 
      6 C6         32.1682  -44.3599  -51.9417 C.3       11 UNK        -0.0953 
      7 S7         33.6193  -44.7481  -52.9731 S.3       11 UNK        -0.2369 
      8 C8         33.6091  -43.3490  -54.1390 C.3       11 UNK         0.0226 
      9 C9         32.8708  -43.6840  -55.4273 C.ar      11 UNK        -0.0699 
     10 C10        33.5365  -44.3910  -56.4321 C.ar      11 UNK        -0.0804 
     11 C11        32.9037  -44.6673  -57.6453 C.ar      11 UNK        -0.0871 
     12 C12        31.5883  -44.2455  -57.8425 C.ar      11 UNK        -0.1008 
     13 C13        30.9009  -43.5394  -56.8500 C.ar      11 UNK        -0.0735 
     14 C14        31.5518  -43.2613  -55.6375 C.ar      11 UNK        -0.0945 
     15 C15        29.4769  -43.0892  -57.1803 C.3       11 UNK         0.0169 
     16 S16        28.5794  -42.1334  -55.9076 S.3       11 UNK        -0.2669 
     17 C17        27.9959  -43.4362  -54.7663 C.3       11 UNK        -0.0850 
     18 CA         26.5733  -43.9927  -55.0657 C.3       10 UNK         0.0855 
     19 C          25.4533  -42.9414  -54.8209 C.2       10 UNK         0.5543 
     20 N          25.1504  -42.6451  -53.5640 N.am      10 UNK        -0.7343 
     21 O          24.8746  -42.3771  -55.7483 O.2       10 UNK        -0.5027 
     22 N          26.4982  -44.6264  -56.3909 N.am      10 UNK        -0.4495 
     23 C          25.5515  -45.4904  -56.7809 C.2       10 UNK         0.4903 
     24 O          24.6481  -45.8961  -56.0483 O.2       10 UNK        -0.4860 
     25 CA         25.6079  -45.9901  -58.2342 C.3       9 UNK         0.0227 
     26 CB         26.4339  -45.0925  -59.1792 C.3       9 UNK        -0.1964 
     27 N          26.1548  -47.3470  -58.2587 N.am      9 UNK        -0.4231 
     28 C          25.4469  -48.4630  -58.4816 C.2       9 UNK         0.5014 
     29 O          24.2374  -48.4781  -58.7169 O.2       9 UNK        -0.5270 
     30 CA         26.2179  -49.7958  -58.4539 C.3       8 UNK         0.0284 
     31 CB         27.0813  -49.9597  -59.7159 C.3       8 UNK        -0.1977 
     32 N          27.0522  -49.9456  -57.2606 N.am      8 UNK        -0.4342 
     33 C          26.5812  -50.1262  -56.0178 C.2       8 UNK         0.5039 
     34 O          25.3875  -50.2655  -55.7480 O.2       8 UNK        -0.5547 
     35 CA         27.6158  -50.1378  -54.8780 C.3       7 UNK         0.0281 
     36 CB         28.2220  -51.5378  -54.6899 C.3       7 UNK        -0.1963 
     37 N          28.6820  -49.1594  -55.0971 N.am      7 UNK        -0.4444 
     38 C          28.5009  -47.8329  -55.0646 C.2       7 UNK         0.5104 
     39 O          27.4516  -47.2971  -54.7161 O.2       7 UNK        -0.5100 
     40 CA         29.6755  -46.9535  -55.5156 C.3       6 UNK         0.0396 
     41 CB         30.5594  -46.5905  -54.3191 C.3       6 UNK        -0.1801 
     42 N          30.4794  -47.5751  -56.5673 N.am      6 UNK        -0.4747 
     43 C          30.0889  -47.6724  -57.8455 C.2       6 UNK         0.5012 
     44 O          29.0254  -47.2145  -58.2637 O.2       6 UNK        -0.5003 
     45 CA         30.9985  -48.4621  -58.8089 C.3       5 UNK         0.0782 
     46 C46        32.0034  -47.5491  -59.5582 C.3       11 UNK        -0.0868 
     47 S47        33.5336  -47.1835  -58.6230 S.3       11 UNK        -0.2515 
     48 C48        33.6624  -45.3761  -58.7562 C.3       11 UNK         0.0199 
     49 N          31.6621  -49.5908  -58.1522 N.am      5 UNK        -0.4607 
     50 C          31.0431  -50.6656  -57.6518 C.2       4 UNK         0.5031 
     51 O          29.8350  -50.8703  -57.7661 O.2       4 UNK        -0.5119 
     52 CA         31.9156  -51.6322  -56.8299 C.3       4 UNK         0.0263 
     53 CB         32.6156  -52.6442  -57.7502 C.3       4 UNK        -0.1967 
     54 N          32.9144  -50.9395  -56.0010 N.am      4 UNK        -0.4237 
     55 C          32.6052  -50.0870  -55.0135 C.2       3 UNK         0.4908 
     56 O          31.4454  -49.8172  -54.6997 O.2       3 UNK        -0.5102 
     57 CA         33.7752  -49.3681  -54.3151 C.3       3 UNK         0.0241 
     58 CB         34.2585  -48.1808  -55.1647 C.3       3 UNK        -0.1971 
     59 N          33.4151  -48.8669  -52.9850 N.am      3 UNK        -0.4139 
     60 C          33.1262  -49.6362  -51.9267 C.2       2 UNK         0.5016 
     61 O          33.1842  -50.8673  -51.9476 O.2       2 UNK        -0.5319 
     62 CA         32.7332  -48.9303  -50.6151 C.3       2 UNK         0.0286 
     63 CB         33.5829  -49.4463  -49.4390 C.3       2 UNK        -0.1963 
     64 N          32.8665  -47.4685  -50.6716 N.am      2 UNK        -0.4790 
     65 C          31.8407  -46.6089  -50.7300 C.2       1 UNK         0.5024 
     66 O          30.6651  -46.9517  -50.8733 O.2       1 UNK        -0.4888 
     67 H67        29.5414  -43.3939  -48.0999 H         1 UNK         0.0892 
     68 H68        29.6260  -44.7260  -46.9457 H         1 UNK         0.0892 
     69 H69        30.6719  -43.3171  -46.7474 H         1 UNK         0.0892 
     70 H70        30.5286  -43.9247  -50.0357 H         1 UNK         0.3107 
     71 H71        33.1892  -45.0233  -50.1681 H         1 UNK         0.0773 
     72 H72        32.1867  -43.2857  -51.7513 H         1 UNK         0.0680 
     73 H73        31.2507  -44.5433  -52.4987 H         1 UNK         0.0680 
     74 H74        34.6430  -43.0928  -54.3752 H         1 UNK         0.0650 
     75 H75        33.1840  -42.4603  -53.6707 H         1 UNK         0.0650 
     76 H76        34.5571  -44.7123  -56.2742 H         1 UNK         0.1397 
     77 H77        31.0991  -44.4535  -58.7844 H         1 UNK         0.1363 
     78 H78        31.0486  -42.7076  -54.8583 H         1 UNK         0.1355 
     79 H79        28.8958  -43.9685  -57.4506 H         1 UNK         0.0707 
     80 H80        29.5209  -42.4687  -58.0767 H         1 UNK         0.0707 
     81 H81        28.7208  -44.2466  -54.7537 H         1 UNK         0.1034 
     82 H82        28.0274  -43.0264  -53.7552 H         1 UNK         0.1034 
     83 H83        26.3957  -44.7900  -54.3410 H         1 UNK         0.0482 
     84 H84        25.6128  -43.0997  -52.7923 H         1 UNK         0.3460 
     85 H85        24.4342  -41.9591  -53.3828 H         1 UNK         0.3460 
     86 H86        27.1632  -44.2980  -57.0718 H         1 UNK         0.2989 
     87 H87        24.5805  -45.9854  -58.6035 H         1 UNK         0.0559 
     88 H88        27.4999  -45.1221  -58.9566 H         1 UNK         0.0848 
     89 H89        26.1055  -44.0532  -59.1284 H         1 UNK         0.0848 
     90 H90        26.3140  -45.4121  -60.2145 H         1 UNK         0.0848 
     91 H91        27.1557  -47.4250  -58.0923 H         1 UNK         0.3144 
     92 H92        25.4828  -50.6036  -58.4472 H         1 UNK         0.0727 
     93 H93        27.5853  -50.9264  -59.7286 H         1 UNK         0.0790 
     94 H94        27.8437  -49.1846  -59.7917 H         1 UNK         0.0790 
     95 H95        26.4681  -49.9015  -60.6162 H         1 UNK         0.0790 
     96 H96        28.0583  -49.9427  -57.3957 H         1 UNK         0.3215 
     97 H97        27.0974  -49.8668  -53.9555 H         1 UNK         0.0863 
     98 H98        28.9439  -51.5510  -53.8729 H         1 UNK         0.0808 
     99 H99        28.7286  -51.8872  -55.5891 H         1 UNK         0.0808 
    100 H100       27.4463  -52.2665  -54.4511 H         1 UNK         0.0808 
    101 H101       29.6188  -49.5122  -55.2727 H         1 UNK         0.3118 
    102 H102       29.2605  -46.0331  -55.9263 H         1 UNK         0.0546 
    103 H103       29.9741  -46.0624  -53.5668 H         1 UNK         0.0828 
    104 H104       31.3831  -45.9455  -54.6177 H         1 UNK         0.0828 
    105 H105       30.9784  -47.4688  -53.8314 H         1 UNK         0.0828 
    106 H106       31.3403  -48.0193  -56.2843 H         1 UNK         0.3005 
    107 H107       30.3292  -48.8854  -59.5614 H         1 UNK         0.1257 
    108 H108       31.5228  -46.6248  -59.8836 H         1 UNK         0.0775 
    109 H109       32.3122  -48.0477  -60.4782 H         1 UNK         0.0775 
    110 H110       34.7174  -45.1019  -58.7069 H         1 UNK         0.0840 
    111 H111       33.3167  -45.0438  -59.7362 H         1 UNK         0.0840 
    112 H112       32.6578  -49.4910  -58.0169 H         1 UNK         0.2987 
    113 H113       31.2517  -52.1824  -56.1598 H         1 UNK         0.0785 
    114 H114       31.8890  -53.1812  -58.3619 H         1 UNK         0.0798 
    115 H115       33.1650  -53.3897  -57.1750 H         1 UNK         0.0798 
    116 H116       33.3175  -52.1585  -58.4294 H         1 UNK         0.0798 
    117 H117       33.8864  -51.1149  -56.2136 H         1 UNK         0.3079 
    118 H118       34.5961  -50.0784  -54.1973 H         1 UNK         0.0794 
    119 H119       33.4651  -47.4519  -55.3371 H         1 UNK         0.0786 
    120 H120       34.6153  -48.5151  -56.1392 H         1 UNK         0.0786 
    121 H121       35.0874  -47.6598  -54.6850 H         1 UNK         0.0786 
    122 H122       33.3235  -47.8674  -52.8812 H         1 UNK         0.3032 
    123 H123       31.6937  -49.2049  -50.4207 H         1 UNK         0.1094 
    124 H124       34.6449  -49.2496  -49.5908 H         1 UNK         0.0794 
    125 H125       33.2854  -48.9775  -48.5006 H         1 UNK         0.0794 
    126 H126       33.4657  -50.5231  -49.3091 H         1 UNK         0.0794 
    127 H127       33.8033  -47.1010  -50.5730 H         1 UNK         0.3016 
@<TRIPOS>BOND
     1    1    2 1    
     2    1   67 1    
     3    1   68 1    
     4    1   69 1    
     5    2    3 2    
     6    2    4 am   BACKBONE|DICT|INTERRES
     7    4    5 1    
     8    4   70 1    
     9    5    6 1    
    10    5   65 1    
    11    5   71 1    
    12    6    7 1    
    13    6   72 1    
    14    6   73 1    
    15    7    8 1    
    16    8    9 1    
    17    8   74 1    
    18    8   75 1    
    19    9   10 ar   
    20    9   14 ar   
    21   10   11 ar   
    22   10   76 1    
    23   11   12 ar   
    24   11   48 1    
    25   12   13 ar   
    26   12   77 1    
    27   13   14 ar   
    28   13   15 1    
    29   14   78 1    
    30   15   16 1    
    31   15   79 1    
    32   15   80 1    
    33   16   17 1    
    34   17   18 1    
    35   17   81 1    
    36   17   82 1    
    37   18   19 1    
    38   18   22 1    
    39   18   83 1    
    40   19   20 am   BACKBONE|DICT|INTERRES
    41   19   21 2    
    42   20   84 1    
    43   20   85 1    
    44   22   23 am   BACKBONE|DICT|INTERRES
    45   22   86 1    
    46   23   24 2    
    47   23   25 1    
    48   25   26 1    
    49   25   27 1    
    50   25   87 1    
    51   26   88 1    
    52   26   89 1    
    53   26   90 1    
    54   27   28 am   BACKBONE|DICT|INTERRES
    55   27   91 1    
    56   28   29 2    
    57   28   30 1    
    58   30   31 1    
    59   30   32 1    
    60   30   92 1    
    61   31   93 1    
    62   31   94 1    
    63   31   95 1    
    64   32   33 am   BACKBONE|DICT|INTERRES
    65   32   96 1    
    66   33   34 2    
    67   33   35 1    
    68   35   36 1    
    69   35   37 1    
    70   35   97 1    
    71   36   98 1    
    72   36   99 1    
    73   36  100 1    
    74   37   38 am   BACKBONE|DICT|INTERRES
    75   37  101 1    
    76   38   39 2    
    77   38   40 1    
    78   40   41 1    
    79   40   42 1    
    80   40  102 1    
    81   41  103 1    
    82   41  104 1    
    83   41  105 1    
    84   42   43 am   BACKBONE|DICT|INTERRES
    85   42  106 1    
    86   43   44 2    
    87   43   45 1    
    88   45   46 1    
    89   45   49 1    
    90   45  107 1    
    91   46   47 1    
    92   46  108 1    
    93   46  109 1    
    94   47   48 1    
    95   48  110 1    
    96   48  111 1    
    97   49   50 am   BACKBONE|DICT|INTERRES
    98   49  112 1    
    99   50   51 2    
   100   50   52 1    
   101   52   53 1    
   102   52   54 1    
   103   52  113 1    
   104   53  114 1    
   105   53  115 1    
   106   53  116 1    
   107   54   55 am   BACKBONE|DICT|INTERRES
   108   54  117 1    
   109   55   56 2    
   110   55   57 1    
   111   57   58 1    
   112   57   59 1    
   113   57  118 1    
   114   58  119 1    
   115   58  120 1    
   116   58  121 1    
   117   59   60 am   BACKBONE|DICT|INTERRES
   118   59  122 1    
   119   60   61 2    
   120   60   62 1    
   121   62   63 1    
   122   62   64 1    
   123   62  123 1    
   124   63  124 1    
   125   63  125 1    
   126   63  126 1    
   127   64   65 am   BACKBONE|DICT|INTERRES
   128   64  127 1    
   129   65   66 2    
@<TRIPOS>SUBSTRUCTURE
     1 UNK         1 GROUP             0       ****    0 ROOT    
