@<TRIPOS>MOLECULE
3R134
127   129    1
SMALL
USER_CHARGES


@<TRIPOS>ATOM
      1 CA         29.5985  -44.9954  -49.6967 C.3       0 UNK        -0.1968 
      2 C          30.8577  -45.8374  -49.5341 C.2       0 UNK         0.4852 
      3 O          31.0380  -46.4730  -48.4948 O.2       0 UNK        -0.5359 
      4 N          31.7300  -45.8389  -50.5523 N.am      1 UNK        -0.4300 
      5 CA         32.9934  -46.5881  -50.5928 C.3       1 UNK         0.0863 
      6 C6         33.9066  -46.1354  -51.7653 C.3       11 UNK        -0.0953 
      7 S7         33.0539  -46.0620  -53.3860 S.3       11 UNK        -0.2369 
      8 C8         33.6553  -44.4608  -54.0136 C.3       11 UNK         0.0226 
      9 C9         32.8373  -43.9730  -55.1989 C.ar      11 UNK        -0.0699 
     10 C10        33.2541  -44.2292  -56.5101 C.ar      11 UNK        -0.0804 
     11 C11        32.5242  -43.7301  -57.5941 C.ar      11 UNK        -0.0871 
     12 C12        31.3828  -42.9576  -57.3563 C.ar      11 UNK        -0.1008 
     13 C13        30.9476  -42.7096  -56.0527 C.ar      11 UNK        -0.0735 
     14 C14        31.6784  -43.2220  -54.9777 C.ar      11 UNK        -0.0945 
     15 C15        29.7061  -41.8639  -55.8052 C.3       11 UNK         0.0169 
     16 S16        28.1924  -42.8733  -55.7448 S.3       11 UNK        -0.2669 
     17 C17        27.9896  -43.3324  -57.5008 C.3       11 UNK        -0.0850 
     18 CA         26.5237  -43.6708  -57.8759 C.3       10 UNK         0.0855 
     19 C          26.3553  -43.8771  -59.4115 C.2       10 UNK         0.5543 
     20 N          25.7355  -44.9518  -59.8868 N.am      10 UNK        -0.7343 
     21 O          26.7866  -43.0330  -60.1933 O.2       10 UNK        -0.5027 
     22 N          26.0025  -44.7882  -57.0733 N.am      10 UNK        -0.4495 
     23 C          24.7357  -44.8921  -56.6524 C.2       10 UNK         0.4903 
     24 O          23.8812  -44.0225  -56.8333 O.2       10 UNK        -0.4860 
     25 CA         24.3607  -46.1911  -55.9108 C.3       9 UNK         0.0227 
     26 CB         22.8360  -46.4241  -55.8453 C.3       9 UNK        -0.1964 
     27 N          25.0415  -47.3828  -56.4339 N.am      9 UNK        -0.4231 
     28 C          24.9958  -47.8648  -57.6879 C.2       9 UNK         0.5014 
     29 O          24.3626  -47.3260  -58.5975 O.2       9 UNK        -0.5270 
     30 CA         25.8105  -49.1380  -57.9944 C.3       8 UNK         0.0284 
     31 CB         26.4874  -49.0575  -59.3764 C.3       8 UNK        -0.1977 
     32 N          26.8402  -49.3709  -56.9810 N.am      8 UNK        -0.4342 
     33 C          26.7600  -50.2488  -55.9713 C.2       8 UNK         0.5039 
     34 O          25.8280  -51.0398  -55.8246 O.2       8 UNK        -0.5547 
     35 CA         27.8945  -50.2239  -54.9269 C.3       7 UNK         0.0281 
     36 CB         28.9143  -51.3312  -55.2315 C.3       7 UNK        -0.1963 
     37 N          28.5883  -48.9328  -54.8431 N.am      7 UNK        -0.4444 
     38 C          28.0104  -47.7820  -54.4611 C.2       7 UNK         0.5104 
     39 O          26.8559  -47.7127  -54.0410 O.2       7 UNK        -0.5100 
     40 CA         28.8112  -46.4789  -54.6533 C.3       6 UNK         0.0396 
     41 CB         29.4558  -46.0462  -53.3312 C.3       6 UNK        -0.1801 
     42 N          29.8324  -46.5645  -55.7044 N.am      6 UNK        -0.4747 
     43 C          29.5733  -46.8321  -56.9932 C.2       6 UNK         0.5012 
     44 O          28.4272  -46.9049  -57.4406 O.2       6 UNK        -0.5003 
     45 CA         30.7632  -47.1320  -57.9310 C.3       5 UNK         0.0782 
     46 C46        30.9281  -46.0247  -59.0192 C.3       11 UNK        -0.0868 
     47 S47        32.6501  -45.7178  -59.5729 S.3       11 UNK        -0.2515 
     48 C48        32.9659  -44.0026  -59.0280 C.3       11 UNK         0.0199 
     49 N          32.0227  -47.4975  -57.2627 N.am      5 UNK        -0.4607 
     50 C          32.2304  -48.5254  -56.4304 C.2       4 UNK         0.5031 
     51 O          31.3223  -49.1617  -55.8920 O.2       4 UNK        -0.5119 
     52 CA         33.6922  -48.9408  -56.1959 C.3       4 UNK         0.0263 
     53 CB         34.7213  -47.8010  -56.3500 C.3       4 UNK        -0.1967 
     54 N          33.8262  -49.5645  -54.8826 N.am      4 UNK        -0.4237 
     55 C          34.6023  -50.6205  -54.5999 C.2       3 UNK         0.4908 
     56 O          35.3283  -51.1763  -55.4290 O.2       3 UNK        -0.5102 
     57 CA         34.5985  -51.1441  -53.1499 C.3       3 UNK         0.0241 
     58 CB         35.9637  -50.8925  -52.4855 C.3       3 UNK        -0.1971 
     59 N          33.5587  -50.5408  -52.3142 N.am      3 UNK        -0.4139 
     60 C          32.2613  -50.8638  -52.3095 C.2       2 UNK         0.5016 
     61 O          31.7931  -51.7801  -52.9834 O.2       2 UNK        -0.5319 
     62 CA         31.3154  -50.0154  -51.4303 C.3       2 UNK         0.0286 
     63 CB         31.0476  -50.7151  -50.0820 C.3       2 UNK        -0.1963 
     64 N          31.7222  -48.6098  -51.2265 N.am      2 UNK        -0.4790 
     65 C          32.8087  -48.1216  -50.6021 C.2       1 UNK         0.5024 
     66 O          33.6761  -48.8287  -50.0844 O.2       1 UNK        -0.4888 
     67 H67        28.7251  -45.6426  -49.8066 H         1 UNK         0.0892 
     68 H68        29.4475  -44.3658  -48.8160 H         1 UNK         0.0892 
     69 H69        29.6564  -44.3430  -50.5691 H         1 UNK         0.0892 
     70 H70        31.5418  -45.2808  -51.3727 H         1 UNK         0.3107 
     71 H71        33.5236  -46.3577  -49.6653 H         1 UNK         0.0773 
     72 H72        34.3078  -45.1458  -51.5258 H         1 UNK         0.0680 
     73 H73        34.7858  -46.7816  -51.8605 H         1 UNK         0.0680 
     74 H74        34.7090  -44.5559  -54.2892 H         1 UNK         0.0650 
     75 H75        33.6107  -43.7112  -53.2192 H         1 UNK         0.0650 
     76 H76        34.1510  -44.8055  -56.6885 H         1 UNK         0.1397 
     77 H77        30.8249  -42.5543  -58.1900 H         1 UNK         0.1363 
     78 H78        31.3539  -43.0211  -53.9658 H         1 UNK         0.1355 
     79 H79        29.6083  -41.0948  -56.5728 H         1 UNK         0.0707 
     80 H80        29.8069  -41.3312  -54.8585 H         1 UNK         0.0707 
     81 H81        28.3497  -42.5042  -58.1136 H         1 UNK         0.1034 
     82 H82        28.6400  -44.1775  -57.7161 H         1 UNK         0.1034 
     83 H83        25.9346  -42.7806  -57.6470 H         1 UNK         0.0482 
     84 H84        25.3362  -45.6486  -59.2684 H         1 UNK         0.3460 
     85 H85        25.6355  -45.0563  -60.8837 H         1 UNK         0.3460 
     86 H86        26.6395  -45.5613  -56.9309 H         1 UNK         0.2989 
     87 H87        24.7173  -46.0645  -54.8876 H         1 UNK         0.0559 
     88 H88        22.3344  -45.6004  -55.3358 H         1 UNK         0.0848 
     89 H89        22.5966  -47.3348  -55.2964 H         1 UNK         0.0848 
     90 H90        22.3969  -46.5065  -56.8401 H         1 UNK         0.0848 
     91 H91        25.6147  -47.8723  -55.7556 H         1 UNK         0.3144 
     92 H92        25.1047  -49.9712  -58.0124 H         1 UNK         0.0727 
     93 H93        27.1486  -48.1931  -59.4536 H         1 UNK         0.0790 
     94 H94        25.7466  -48.9721  -60.1724 H         1 UNK         0.0790 
     95 H95        27.0770  -49.9512  -59.5820 H         1 UNK         0.0790 
     96 H96        27.6203  -48.7225  -57.0052 H         1 UNK         0.3215 
     97 H97        27.4470  -50.4262  -53.9514 H         1 UNK         0.0863 
     98 H98        29.4011  -51.1791  -56.1958 H         1 UNK         0.0808 
     99 H99        28.4345  -52.3106  -55.2573 H         1 UNK         0.0808 
    100 H100       29.6911  -51.3722  -54.4696 H         1 UNK         0.0808 
    101 H101       29.5482  -48.9122  -55.1827 H         1 UNK         0.3118 
    102 H102       28.0985  -45.7080  -54.9500 H         1 UNK         0.0546 
    103 H103       30.1818  -46.7806  -52.9858 H         1 UNK         0.0828 
    104 H104       28.7018  -45.9350  -52.5505 H         1 UNK         0.0828 
    105 H105       29.9588  -45.0850  -53.4343 H         1 UNK         0.0828 
    106 H106       30.7993  -46.5086  -55.4159 H         1 UNK         0.3005 
    107 H107       30.4674  -48.0408  -58.4602 H         1 UNK         0.1257 
    108 H108       30.3480  -46.3047  -59.9003 H         1 UNK         0.0775 
    109 H109       30.4899  -45.0802  -58.7047 H         1 UNK         0.0775 
    110 H110       34.0323  -43.7929  -59.1239 H         1 UNK         0.0840 
    111 H111       32.4641  -43.3218  -59.7175 H         1 UNK         0.0840 
    112 H112       32.8294  -47.0129  -57.6304 H         1 UNK         0.2987 
    113 H113       33.9024  -49.6887  -56.9634 H         1 UNK         0.0785 
    114 H114       34.7215  -47.3886  -57.3595 H         1 UNK         0.0798 
    115 H115       35.7329  -48.1618  -56.1616 H         1 UNK         0.0798 
    116 H116       34.5314  -46.9857  -55.6547 H         1 UNK         0.0798 
    117 H117       33.2060  -49.2101  -54.1663 H         1 UNK         0.3079 
    118 H118       34.4285  -52.2221  -53.1929 H         1 UNK         0.0794 
    119 H119       35.9979  -51.3070  -51.4776 H         1 UNK         0.0786 
    120 H120       36.1885  -49.8267  -52.4182 H         1 UNK         0.0786 
    121 H121       36.7684  -51.3608  -53.0543 H         1 UNK         0.0786 
    122 H122       33.8526  -49.8262  -51.6543 H         1 UNK         0.3032 
    123 H123       30.3656  -49.9721  -51.9698 H         1 UNK         0.1094 
    124 H124       30.6448  -51.7181  -50.2356 H         1 UNK         0.0794 
    125 H125       31.9571  -50.8199  -49.4874 H         1 UNK         0.0794 
    126 H126       30.3194  -50.1622  -49.4871 H         1 UNK         0.0794 
    127 H127       31.0975  -47.9249  -51.6282 H         1 UNK         0.3016 
@<TRIPOS>BOND
     1    1    2 1    
     2    1   67 1    
     3    1   68 1    
     4    1   69 1    
     5    2    3 2    
     6    2    4 am   BACKBONE|DICT|INTERRES
     7    4    5 1    
     8    4   70 1    
     9    5    6 1    
    10    5   65 1    
    11    5   71 1    
    12    6    7 1    
    13    6   72 1    
    14    6   73 1    
    15    7    8 1    
    16    8    9 1    
    17    8   74 1    
    18    8   75 1    
    19    9   10 ar   
    20    9   14 ar   
    21   10   11 ar   
    22   10   76 1    
    23   11   12 ar   
    24   11   48 1    
    25   12   13 ar   
    26   12   77 1    
    27   13   14 ar   
    28   13   15 1    
    29   14   78 1    
    30   15   16 1    
    31   15   79 1    
    32   15   80 1    
    33   16   17 1    
    34   17   18 1    
    35   17   81 1    
    36   17   82 1    
    37   18   19 1    
    38   18   22 1    
    39   18   83 1    
    40   19   20 am   BACKBONE|DICT|INTERRES
    41   19   21 2    
    42   20   84 1    
    43   20   85 1    
    44   22   23 am   BACKBONE|DICT|INTERRES
    45   22   86 1    
    46   23   24 2    
    47   23   25 1    
    48   25   26 1    
    49   25   27 1    
    50   25   87 1    
    51   26   88 1    
    52   26   89 1    
    53   26   90 1    
    54   27   28 am   BACKBONE|DICT|INTERRES
    55   27   91 1    
    56   28   29 2    
    57   28   30 1    
    58   30   31 1    
    59   30   32 1    
    60   30   92 1    
    61   31   93 1    
    62   31   94 1    
    63   31   95 1    
    64   32   33 am   BACKBONE|DICT|INTERRES
    65   32   96 1    
    66   33   34 2    
    67   33   35 1    
    68   35   36 1    
    69   35   37 1    
    70   35   97 1    
    71   36   98 1    
    72   36   99 1    
    73   36  100 1    
    74   37   38 am   BACKBONE|DICT|INTERRES
    75   37  101 1    
    76   38   39 2    
    77   38   40 1    
    78   40   41 1    
    79   40   42 1    
    80   40  102 1    
    81   41  103 1    
    82   41  104 1    
    83   41  105 1    
    84   42   43 am   BACKBONE|DICT|INTERRES
    85   42  106 1    
    86   43   44 2    
    87   43   45 1    
    88   45   46 1    
    89   45   49 1    
    90   45  107 1    
    91   46   47 1    
    92   46  108 1    
    93   46  109 1    
    94   47   48 1    
    95   48  110 1    
    96   48  111 1    
    97   49   50 am   BACKBONE|DICT|INTERRES
    98   49  112 1    
    99   50   51 2    
   100   50   52 1    
   101   52   53 1    
   102   52   54 1    
   103   52  113 1    
   104   53  114 1    
   105   53  115 1    
   106   53  116 1    
   107   54   55 am   BACKBONE|DICT|INTERRES
   108   54  117 1    
   109   55   56 2    
   110   55   57 1    
   111   57   58 1    
   112   57   59 1    
   113   57  118 1    
   114   58  119 1    
   115   58  120 1    
   116   58  121 1    
   117   59   60 am   BACKBONE|DICT|INTERRES
   118   59  122 1    
   119   60   61 2    
   120   60   62 1    
   121   62   63 1    
   122   62   64 1    
   123   62  123 1    
   124   63  124 1    
   125   63  125 1    
   126   63  126 1    
   127   64   65 am   BACKBONE|DICT|INTERRES
   128   64  127 1    
   129   65   66 2    
@<TRIPOS>SUBSTRUCTURE
     1 UNK         1 GROUP             0       ****    0 ROOT    
