@<TRIPOS>MOLECULE
3R134
127   129    1
SMALL
USER_CHARGES


@<TRIPOS>ATOM
      1 CA         31.4802  -43.5560  -59.8628 C.3       0 UNK        -0.1968 
      2 C          31.5271  -44.0673  -58.4300 C.2       0 UNK         0.4852 
      3 O          30.6460  -43.7439  -57.6346 O.2       0 UNK        -0.5359 
      4 N          32.5560  -44.8534  -58.1033 N.am      1 UNK        -0.4300 
      5 CA         32.8532  -45.3944  -56.7794 C.3       1 UNK         0.0863 
      6 C6         33.6265  -44.3533  -55.9245 C.3       11 UNK        -0.0953 
      7 S7         33.8054  -44.7851  -54.1573 S.3       11 UNK        -0.2369 
      8 C8         32.7558  -43.5503  -53.3259 C.3       11 UNK         0.0226 
      9 C9         31.3650  -44.0945  -53.0376 C.ar      11 UNK        -0.0699 
     10 C10        31.0029  -44.4495  -51.7338 C.ar      11 UNK        -0.0804 
     11 C11        29.7202  -44.9337  -51.4588 C.ar      11 UNK        -0.0871 
     12 C12        28.8009  -45.0722  -52.5029 C.ar      11 UNK        -0.1008 
     13 C13        29.1574  -44.7364  -53.8116 C.ar      11 UNK        -0.0735 
     14 C14        30.4357  -44.2358  -54.0710 C.ar      11 UNK        -0.0945 
     15 C15        28.1702  -44.9547  -54.9454 C.3       11 UNK         0.0169 
     16 S16        26.9308  -43.6254  -55.0485 S.3       11 UNK        -0.2669 
     17 C17        27.8616  -42.3242  -55.9326 C.3       11 UNK        -0.0850 
     18 CA         27.3912  -42.1288  -57.3993 C.3       10 UNK         0.0855 
     19 C          28.1356  -40.9324  -58.0616 C.2       10 UNK         0.5543 
     20 N          28.9388  -41.1380  -59.0970 N.am      10 UNK        -0.7343 
     21 O          27.9698  -39.7940  -57.6303 O.2       10 UNK        -0.5027 
     22 N          27.4243  -43.3938  -58.1539 N.am      10 UNK        -0.4495 
     23 C          26.7877  -43.6292  -59.3091 C.2       10 UNK         0.4903 
     24 O          26.1529  -42.7799  -59.9344 O.2       10 UNK        -0.4860 
     25 CA         26.8308  -45.0751  -59.8322 C.3       9 UNK         0.0227 
     26 CB         28.1458  -45.3682  -60.5694 C.3       9 UNK        -0.1964 
     27 N          26.6602  -46.0404  -58.7471 N.am      9 UNK        -0.4231 
     28 C          25.5043  -46.3275  -58.1401 C.2       9 UNK         0.5014 
     29 O          24.4157  -45.8938  -58.5229 O.2       9 UNK        -0.5270 
     30 CA         25.5744  -47.2378  -56.8929 C.3       8 UNK         0.0284 
     31 CB         24.1887  -47.7495  -56.4561 C.3       8 UNK        -0.1977 
     32 N          26.4812  -48.3884  -56.9985 N.am      8 UNK        -0.4342 
     33 C          27.8186  -48.3773  -57.0669 C.2       8 UNK         0.5039 
     34 O          28.4866  -47.3471  -57.1700 O.2       8 UNK        -0.5547 
     35 CA         28.5187  -49.7476  -56.9786 C.3       7 UNK         0.0281 
     36 CB         30.0308  -49.6476  -57.2470 C.3       7 UNK        -0.1963 
     37 N          28.3126  -50.3507  -55.6599 N.am      7 UNK        -0.4444 
     38 C          27.1708  -50.9107  -55.2343 C.2       7 UNK         0.5104 
     39 O          26.1948  -51.0955  -55.9636 O.2       7 UNK        -0.5100 
     40 CA         27.0773  -51.2919  -53.7442 C.3       6 UNK         0.0396 
     41 CB         27.3283  -52.7969  -53.5609 C.3       6 UNK        -0.1801 
     42 N          27.9938  -50.5445  -52.8771 N.am      6 UNK        -0.4747 
     43 C          28.0032  -49.2140  -52.6940 C.2       6 UNK         0.5012 
     44 O          27.1764  -48.4555  -53.2007 O.2       6 UNK        -0.5003 
     45 CA         29.1251  -48.6223  -51.8104 C.3       5 UNK         0.0782 
     46 C46        28.5264  -47.9581  -50.5455 C.3       11 UNK        -0.0868 
     47 S47        29.7714  -47.0071  -49.6093 S.3       11 UNK        -0.2515 
     48 C48        29.3269  -45.2916  -50.0322 C.3       11 UNK         0.0199 
     49 N          30.1721  -49.5937  -51.4600 N.am      5 UNK        -0.4607 
     50 C          31.0658  -50.1156  -52.3073 C.2       4 UNK         0.5031 
     51 O          31.0888  -49.8827  -53.5189 O.2       4 UNK        -0.5119 
     52 CA         32.0567  -51.1142  -51.7016 C.3       4 UNK         0.0263 
     53 CB         31.4707  -52.5367  -51.7063 C.3       4 UNK        -0.1967 
     54 N          33.2794  -51.0885  -52.4937 N.am      4 UNK        -0.4237 
     55 C          34.5257  -51.1207  -52.0070 C.2       3 UNK         0.4908 
     56 O          34.7877  -51.2883  -50.8149 O.2       3 UNK        -0.5102 
     57 CA         35.6881  -50.9364  -53.0055 C.3       3 UNK         0.0241 
     58 CB         36.4275  -52.2682  -53.2198 C.3       3 UNK        -0.1971 
     59 N          35.2924  -50.3968  -54.3125 N.am      3 UNK        -0.4139 
     60 C          34.7987  -49.1691  -54.5239 C.2       2 UNK         0.5016 
     61 O          34.6423  -48.3329  -53.6307 O.2       2 UNK        -0.5319 
     62 CA         34.3898  -48.8364  -55.9665 C.3       2 UNK         0.0286 
     63 CB         33.4951  -49.9297  -56.5861 C.3       2 UNK        -0.1963 
     64 N          33.6829  -47.5580  -55.9755 N.am      2 UNK        -0.4790 
     65 C          33.6394  -46.7020  -56.9991 C.2       1 UNK         0.5024 
     66 O          34.1902  -46.9121  -58.0850 O.2       1 UNK        -0.4888 
     67 H67        32.1539  -44.1126  -60.5141 H         1 UNK         0.0892 
     68 H68        30.4755  -43.6368  -60.2711 H         1 UNK         0.0892 
     69 H69        31.7712  -42.5063  -59.8898 H         1 UNK         0.0892 
     70 H70        33.2143  -45.1603  -58.8098 H         1 UNK         0.3107 
     71 H71        31.9117  -45.6523  -56.2897 H         1 UNK         0.0773 
     72 H72        33.1291  -43.3854  -55.9951 H         1 UNK         0.0680 
     73 H73        34.6250  -44.1926  -56.3352 H         1 UNK         0.0680 
     74 H74        32.6854  -42.6360  -53.9161 H         1 UNK         0.0650 
     75 H75        33.2453  -43.2636  -52.3939 H         1 UNK         0.0650 
     76 H76        31.7182  -44.3451  -50.9292 H         1 UNK         0.1397 
     77 H77        27.8076  -45.4509  -52.3043 H         1 UNK         0.1363 
     78 H78        30.7148  -43.9674  -55.0795 H         1 UNK         0.1355 
     79 H79        28.6939  -45.0467  -55.8978 H         1 UNK         0.0707 
     80 H80        27.6628  -45.9060  -54.7837 H         1 UNK         0.0707 
     81 H81        28.9294  -42.5448  -55.9044 H         1 UNK         0.1034 
     82 H82        27.7372  -41.3972  -55.3696 H         1 UNK         0.1034 
     83 H83        26.3426  -41.8275  -57.3585 H         1 UNK         0.0482 
     84 H84        29.0869  -42.0746  -59.4327 H         1 UNK         0.3460 
     85 H85        29.4112  -40.3575  -59.5241 H         1 UNK         0.3460 
     86 H86        27.9564  -44.1385  -57.7289 H         1 UNK         0.2989 
     87 H87        26.0106  -45.1977  -60.5428 H         1 UNK         0.0559 
     88 H88        28.9933  -45.3931  -59.8843 H         1 UNK         0.0848 
     89 H89        28.3492  -44.6134  -61.3302 H         1 UNK         0.0848 
     90 H90        28.1041  -46.3329  -61.0752 H         1 UNK         0.0848 
     91 H91        27.5014  -46.4406  -58.3300 H         1 UNK         0.3144 
     92 H92        25.9467  -46.6066  -56.0863 H         1 UNK         0.0727 
     93 H93        24.2520  -48.3250  -55.5320 H         1 UNK         0.0790 
     94 H94        23.7367  -48.3850  -57.2186 H         1 UNK         0.0790 
     95 H95        23.5027  -46.9221  -56.2691 H         1 UNK         0.0790 
     96 H96        26.0501  -49.3010  -56.8875 H         1 UNK         0.3215 
     97 H97        28.0820  -50.3958  -57.7415 H         1 UNK         0.0863 
     98 H98        30.5293  -49.0192  -56.5073 H         1 UNK         0.0808 
     99 H99        30.2268  -49.2129  -58.2281 H         1 UNK         0.0808 
    100 H100       30.5017  -50.6304  -57.2282 H         1 UNK         0.0808 
    101 H101       29.0523  -50.2139  -54.9833 H         1 UNK         0.3118 
    102 H102       26.0597  -51.0706  -53.4160 H         1 UNK         0.0546 
    103 H103       27.1756  -53.1032  -52.5259 H         1 UNK         0.0828 
    104 H104       28.3428  -53.0758  -53.8490 H         1 UNK         0.0828 
    105 H105       26.6430  -53.3843  -54.1738 H         1 UNK         0.0828 
    106 H106       28.7103  -51.0811  -52.4108 H         1 UNK         0.3005 
    107 H107       29.5959  -47.8431  -52.4147 H         1 UNK         0.1257 
    108 H108       28.1063  -48.7158  -49.8815 H         1 UNK         0.0775 
    109 H109       27.6956  -47.2982  -50.8005 H         1 UNK         0.0775 
    110 H110       28.2582  -45.1353  -49.8766 H         1 UNK         0.0840 
    111 H111       29.8304  -44.6196  -49.3354 H         1 UNK         0.0840 
    112 H112       30.2247  -49.8413  -50.4821 H         1 UNK         0.2987 
    113 H113       32.2695  -50.8095  -50.6743 H         1 UNK         0.0785 
    114 H114       32.1751  -53.2541  -51.2849 H         1 UNK         0.0798 
    115 H115       30.5599  -52.5903  -51.1087 H         1 UNK         0.0798 
    116 H116       31.2218  -52.8675  -52.7156 H         1 UNK         0.0798 
    117 H117       33.1391  -50.8755  -53.4723 H         1 UNK         0.3079 
    118 H118       36.3853  -50.2279  -52.5532 H         1 UNK         0.0794 
    119 H119       37.3069  -52.1383  -53.8510 H         1 UNK         0.0786 
    120 H120       35.7848  -53.0163  -53.6856 H         1 UNK         0.0786 
    121 H121       36.7727  -52.6815  -52.2708 H         1 UNK         0.0786 
    122 H122       35.3898  -51.0206  -55.1009 H         1 UNK         0.3032 
    123 H123       35.3082  -48.7428  -56.5509 H         1 UNK         0.1094 
    124 H124       32.6372  -50.1494  -55.9498 H         1 UNK         0.0794 
    125 H125       33.1182  -49.6307  -57.5643 H         1 UNK         0.0794 
    126 H126       34.0422  -50.8612  -56.7328 H         1 UNK         0.0794 
    127 H127       33.3176  -47.2762  -55.0724 H         1 UNK         0.3016 
@<TRIPOS>BOND
     1    1    2 1    
     2    1   67 1    
     3    1   68 1    
     4    1   69 1    
     5    2    3 2    
     6    2    4 am   BACKBONE|DICT|INTERRES
     7    4    5 1    
     8    4   70 1    
     9    5    6 1    
    10    5   65 1    
    11    5   71 1    
    12    6    7 1    
    13    6   72 1    
    14    6   73 1    
    15    7    8 1    
    16    8    9 1    
    17    8   74 1    
    18    8   75 1    
    19    9   10 ar   
    20    9   14 ar   
    21   10   11 ar   
    22   10   76 1    
    23   11   12 ar   
    24   11   48 1    
    25   12   13 ar   
    26   12   77 1    
    27   13   14 ar   
    28   13   15 1    
    29   14   78 1    
    30   15   16 1    
    31   15   79 1    
    32   15   80 1    
    33   16   17 1    
    34   17   18 1    
    35   17   81 1    
    36   17   82 1    
    37   18   19 1    
    38   18   22 1    
    39   18   83 1    
    40   19   20 am   BACKBONE|DICT|INTERRES
    41   19   21 2    
    42   20   84 1    
    43   20   85 1    
    44   22   23 am   BACKBONE|DICT|INTERRES
    45   22   86 1    
    46   23   24 2    
    47   23   25 1    
    48   25   26 1    
    49   25   27 1    
    50   25   87 1    
    51   26   88 1    
    52   26   89 1    
    53   26   90 1    
    54   27   28 am   BACKBONE|DICT|INTERRES
    55   27   91 1    
    56   28   29 2    
    57   28   30 1    
    58   30   31 1    
    59   30   32 1    
    60   30   92 1    
    61   31   93 1    
    62   31   94 1    
    63   31   95 1    
    64   32   33 am   BACKBONE|DICT|INTERRES
    65   32   96 1    
    66   33   34 2    
    67   33   35 1    
    68   35   36 1    
    69   35   37 1    
    70   35   97 1    
    71   36   98 1    
    72   36   99 1    
    73   36  100 1    
    74   37   38 am   BACKBONE|DICT|INTERRES
    75   37  101 1    
    76   38   39 2    
    77   38   40 1    
    78   40   41 1    
    79   40   42 1    
    80   40  102 1    
    81   41  103 1    
    82   41  104 1    
    83   41  105 1    
    84   42   43 am   BACKBONE|DICT|INTERRES
    85   42  106 1    
    86   43   44 2    
    87   43   45 1    
    88   45   46 1    
    89   45   49 1    
    90   45  107 1    
    91   46   47 1    
    92   46  108 1    
    93   46  109 1    
    94   47   48 1    
    95   48  110 1    
    96   48  111 1    
    97   49   50 am   BACKBONE|DICT|INTERRES
    98   49  112 1    
    99   50   51 2    
   100   50   52 1    
   101   52   53 1    
   102   52   54 1    
   103   52  113 1    
   104   53  114 1    
   105   53  115 1    
   106   53  116 1    
   107   54   55 am   BACKBONE|DICT|INTERRES
   108   54  117 1    
   109   55   56 2    
   110   55   57 1    
   111   57   58 1    
   112   57   59 1    
   113   57  118 1    
   114   58  119 1    
   115   58  120 1    
   116   58  121 1    
   117   59   60 am   BACKBONE|DICT|INTERRES
   118   59  122 1    
   119   60   61 2    
   120   60   62 1    
   121   62   63 1    
   122   62   64 1    
   123   62  123 1    
   124   63  124 1    
   125   63  125 1    
   126   63  126 1    
   127   64   65 am   BACKBONE|DICT|INTERRES
   128   64  127 1    
   129   65   66 2    
@<TRIPOS>SUBSTRUCTURE
     1 UNK         1 GROUP             0       ****    0 ROOT    
