@<TRIPOS>MOLECULE
3R134
127   129    1
SMALL
USER_CHARGES


@<TRIPOS>ATOM
      1 CA         31.4846  -47.7223  -56.9449 C.3       0 UNK        -0.1968 
      2 C          32.1555  -47.4357  -55.6118 C.2       0 UNK         0.4852 
      3 O          31.7867  -48.0370  -54.6022 O.2       0 UNK        -0.5359 
      4 N          33.1457  -46.5325  -55.6006 N.am      1 UNK        -0.4300 
      5 CA         33.8886  -46.1021  -54.4085 C.3       1 UNK         0.0863 
      6 C6         34.8337  -44.9064  -54.6893 C.3       11 UNK        -0.0953 
      7 S7         34.0156  -43.5119  -55.5346 S.3       11 UNK        -0.2369 
      8 C8         33.1368  -42.7113  -54.1584 C.3       11 UNK         0.0226 
      9 C9         31.6456  -42.6309  -54.4435 C.ar      11 UNK        -0.0699 
     10 C10        30.8191  -43.7274  -54.1868 C.ar      11 UNK        -0.0804 
     11 C11        29.4439  -43.6589  -54.4284 C.ar      11 UNK        -0.0871 
     12 C12        28.8975  -42.4798  -54.9458 C.ar      11 UNK        -0.1008 
     13 C13        29.7169  -41.3794  -55.2218 C.ar      11 UNK        -0.0735 
     14 C14        31.0887  -41.4600  -54.9639 C.ar      11 UNK        -0.0945 
     15 C15        29.1329  -40.1017  -55.8048 C.3       11 UNK         0.0169 
     16 S16        29.3151  -40.0804  -57.6163 S.3       11 UNK        -0.2669 
     17 C17        27.5809  -39.9499  -58.1737 C.3       11 UNK        -0.0850 
     18 CA         26.7457  -41.2408  -57.9584 C.3       10 UNK         0.0855 
     19 C          25.2838  -41.0456  -58.4579 C.2       10 UNK         0.5543 
     20 N          24.8001  -41.8170  -59.4239 N.am      10 UNK        -0.7343 
     21 O          24.5746  -40.1787  -57.9533 O.2       10 UNK        -0.5027 
     22 N          27.4257  -42.4398  -58.4803 N.am      10 UNK        -0.4495 
     23 C          27.1882  -43.6837  -58.0524 C.2       10 UNK         0.4903 
     24 O          26.3712  -43.9672  -57.1713 O.2       10 UNK        -0.4860 
     25 CA         28.0052  -44.8008  -58.7114 C.3       9 UNK         0.0227 
     26 CB         29.4255  -44.8755  -58.1183 C.3       9 UNK        -0.1964 
     27 N          27.2793  -46.0491  -58.5028 N.am      9 UNK        -0.4231 
     28 C          27.4838  -47.2203  -59.1108 C.2       9 UNK         0.5014 
     29 O          28.3892  -47.4409  -59.9188 O.2       9 UNK        -0.5270 
     30 CA         26.4535  -48.3197  -58.7991 C.3       8 UNK         0.0284 
     31 CB         25.4909  -48.5092  -59.9835 C.3       8 UNK        -0.1977 
     32 N          27.0750  -49.6033  -58.4704 N.am      8 UNK        -0.4342 
     33 C          27.8062  -49.8275  -57.3732 C.2       8 UNK         0.5039 
     34 O          28.0916  -48.9572  -56.5454 O.2       8 UNK        -0.5547 
     35 CA         28.2941  -51.2671  -57.1554 C.3       7 UNK         0.0281 
     36 CB         29.6607  -51.4850  -57.8243 C.3       7 UNK        -0.1963 
     37 N          28.4238  -51.4786  -55.7169 N.am      7 UNK        -0.4444 
     38 C          27.5634  -52.1560  -54.9472 C.2       7 UNK         0.5104 
     39 O          26.6733  -52.8869  -55.3832 O.2       7 UNK        -0.5100 
     40 CA         27.7020  -51.9547  -53.4250 C.3       6 UNK         0.0396 
     41 CB         28.4873  -53.1152  -52.7960 C.3       6 UNK        -0.1801 
     42 N          28.3381  -50.6712  -53.0915 N.am      6 UNK        -0.4747 
     43 C          27.7186  -49.4830  -53.2142 C.2       6 UNK         0.5012 
     44 O          26.5147  -49.3857  -53.4591 O.2       6 UNK        -0.5003 
     45 CA         28.5683  -48.1950  -53.1060 C.3       5 UNK         0.0782 
     46 C46        27.7683  -47.0048  -52.5006 C.3       11 UNK        -0.0868 
     47 S47        28.7146  -45.4473  -52.4346 S.3       11 UNK        -0.2515 
     48 C48        28.5613  -44.8705  -54.1561 C.3       11 UNK         0.0199 
     49 N          29.8918  -48.4110  -52.5103 N.am      5 UNK        -0.4607 
     50 C          30.1697  -48.7074  -51.2340 C.2       4 UNK         0.5031 
     51 O          29.3156  -48.8301  -50.3546 O.2       4 UNK        -0.5119 
     52 CA         31.6616  -48.9306  -50.9050 C.3       4 UNK         0.0263 
     53 CB         31.8811  -49.6305  -49.5471 C.3       4 UNK        -0.1967 
     54 N          32.3822  -49.6359  -51.9748 N.am      4 UNK        -0.4237 
     55 C          32.0848  -50.8425  -52.4869 C.2       3 UNK         0.4908 
     56 O          31.1674  -51.5464  -52.0677 O.2       3 UNK        -0.5102 
     57 CA         32.8925  -51.3412  -53.6998 C.3       3 UNK         0.0241 
     58 CB         31.9632  -51.5869  -54.9022 C.3       3 UNK        -0.1971 
     59 N          33.9353  -50.4010  -54.1072 N.am      3 UNK        -0.4139 
     60 C          35.1965  -50.3988  -53.6572 C.2       2 UNK         0.5016 
     61 O          35.6511  -51.2379  -52.8795 O.2       2 UNK        -0.5319 
     62 CA         36.1009  -49.2521  -54.1463 C.3       2 UNK         0.0286 
     63 CB         36.9953  -49.7287  -55.3021 C.3       2 UNK        -0.1963 
     64 N          35.3558  -48.0614  -54.5744 N.am      2 UNK        -0.4790 
     65 C          34.6627  -47.2601  -53.7513 C.2       1 UNK         0.5024 
     66 O          34.5779  -47.4403  -52.5363 O.2       1 UNK        -0.4888 
     67 H67        30.4068  -47.5876  -56.8587 H         1 UNK         0.0892 
     68 H68        31.8476  -47.0645  -57.7339 H         1 UNK         0.0892 
     69 H69        31.6770  -48.7507  -57.2458 H         1 UNK         0.0892 
     70 H70        33.3943  -46.0568  -56.4564 H         1 UNK         0.3107 
     71 H71        33.1510  -45.7777  -53.6739 H         1 UNK         0.0773 
     72 H72        35.6669  -45.2195  -55.3215 H         1 UNK         0.0680 
     73 H73        35.2814  -44.5420  -53.7625 H         1 UNK         0.0680 
     74 H74        33.3024  -43.2520  -53.2256 H         1 UNK         0.0650 
     75 H75        33.5514  -41.7134  -54.0079 H         1 UNK         0.0650 
     76 H76        31.2402  -44.6393  -53.7906 H         1 UNK         0.1397 
     77 H77        27.8366  -42.4233  -55.1450 H         1 UNK         0.1363 
     78 H78        31.7244  -40.6115  -55.1781 H         1 UNK         0.1355 
     79 H79        29.6476  -39.2346  -55.3881 H         1 UNK         0.0707 
     80 H80        28.0861  -39.9966  -55.5168 H         1 UNK         0.0707 
     81 H81        27.5941  -39.6861  -59.2329 H         1 UNK         0.1034 
     82 H82        27.1180  -39.1030  -57.6629 H         1 UNK         0.1034 
     83 H83        26.6516  -41.3756  -56.8802 H         1 UNK         0.0482 
     84 H84        25.3745  -42.5303  -59.8427 H         1 UNK         0.3460 
     85 H85        23.8512  -41.6829  -59.7360 H         1 UNK         0.3460 
     86 H86        28.1193  -42.2818  -59.1967 H         1 UNK         0.2989 
     87 H87        28.0637  -44.6030  -59.7835 H         1 UNK         0.0559 
     88 H88        29.4087  -45.1610  -57.0676 H         1 UNK         0.0848 
     89 H89        29.9345  -43.9128  -58.1837 H         1 UNK         0.0848 
     90 H90        30.0391  -45.5995  -58.6531 H         1 UNK         0.0848 
     91 H91        26.5027  -45.9473  -57.8587 H         1 UNK         0.3144 
     92 H92        25.8642  -48.0124  -57.9320 H         1 UNK         0.0727 
     93 H93        24.7123  -49.2364  -59.7522 H         1 UNK         0.0790 
     94 H94        26.0142  -48.8486  -60.8786 H         1 UNK         0.0790 
     95 H95        24.9920  -47.5721  -60.2347 H         1 UNK         0.0790 
     96 H96        26.9260  -50.3584  -59.1241 H         1 UNK         0.3215 
     97 H97        27.5696  -51.9641  -57.5824 H         1 UNK         0.0863 
     98 H98        30.0380  -52.4901  -57.6353 H         1 UNK         0.0808 
     99 H99        30.4055  -50.7755  -57.4648 H         1 UNK         0.0808 
    100 H100       29.5906  -51.3622  -58.9058 H         1 UNK         0.0808 
    101 H101       29.0422  -50.8338  -55.2474 H         1 UNK         0.3118 
    102 H102       26.6980  -51.9624  -52.9956 H         1 UNK         0.0546 
    103 H103       29.4768  -53.2247  -53.2394 H         1 UNK         0.0828 
    104 H104       27.9633  -54.0606  -52.9412 H         1 UNK         0.0828 
    105 H105       28.6140  -52.9757  -51.7223 H         1 UNK         0.0828 
    106 H106       29.3135  -50.7005  -52.8145 H         1 UNK         0.3005 
    107 H107       28.7787  -47.9371  -54.1449 H         1 UNK         0.1257 
    108 H108       27.4428  -47.2437  -51.4870 H         1 UNK         0.0775 
    109 H109       26.8564  -46.8206  -53.0717 H         1 UNK         0.0775 
    110 H110       28.8523  -45.6728  -54.8341 H         1 UNK         0.0840 
    111 H111       27.5144  -44.6468  -54.3684 H         1 UNK         0.0840 
    112 H112       30.6683  -48.3269  -53.1658 H         1 UNK         0.2987 
    113 H113       32.1082  -47.9371  -50.8417 H         1 UNK         0.0785 
    114 H114       32.9425  -49.7567  -49.3336 H         1 UNK         0.0798 
    115 H115       31.4134  -50.6152  -49.5190 H         1 UNK         0.0798 
    116 H116       31.4548  -49.0448  -48.7318 H         1 UNK         0.0798 
    117 H117       33.1359  -49.1106  -52.4008 H         1 UNK         0.3079 
    118 H118       33.3478  -52.2933  -53.4193 H         1 UNK         0.0794 
    119 H119       31.2198  -52.3515  -54.6760 H         1 UNK         0.0786 
    120 H120       32.5216  -51.9336  -55.7720 H         1 UNK         0.0786 
    121 H121       31.4266  -50.6818  -55.1872 H         1 UNK         0.0786 
    122 H122       33.6449  -49.6486  -54.7159 H         1 UNK         0.3032 
    123 H123       36.7425  -48.9682  -53.3086 H         1 UNK         0.1094 
    124 H124       37.6984  -48.9531  -55.6064 H         1 UNK         0.0794 
    125 H125       37.5842  -50.5983  -55.0065 H         1 UNK         0.0794 
    126 H126       36.4091  -50.0146  -56.1764 H         1 UNK         0.0794 
    127 H127       35.3640  -47.8470  -55.5618 H         1 UNK         0.3016 
@<TRIPOS>BOND
     1    1    2 1    
     2    1   67 1    
     3    1   68 1    
     4    1   69 1    
     5    2    3 2    
     6    2    4 am   BACKBONE|DICT|INTERRES
     7    4    5 1    
     8    4   70 1    
     9    5    6 1    
    10    5   65 1    
    11    5   71 1    
    12    6    7 1    
    13    6   72 1    
    14    6   73 1    
    15    7    8 1    
    16    8    9 1    
    17    8   74 1    
    18    8   75 1    
    19    9   10 ar   
    20    9   14 ar   
    21   10   11 ar   
    22   10   76 1    
    23   11   12 ar   
    24   11   48 1    
    25   12   13 ar   
    26   12   77 1    
    27   13   14 ar   
    28   13   15 1    
    29   14   78 1    
    30   15   16 1    
    31   15   79 1    
    32   15   80 1    
    33   16   17 1    
    34   17   18 1    
    35   17   81 1    
    36   17   82 1    
    37   18   19 1    
    38   18   22 1    
    39   18   83 1    
    40   19   20 am   BACKBONE|DICT|INTERRES
    41   19   21 2    
    42   20   84 1    
    43   20   85 1    
    44   22   23 am   BACKBONE|DICT|INTERRES
    45   22   86 1    
    46   23   24 2    
    47   23   25 1    
    48   25   26 1    
    49   25   27 1    
    50   25   87 1    
    51   26   88 1    
    52   26   89 1    
    53   26   90 1    
    54   27   28 am   BACKBONE|DICT|INTERRES
    55   27   91 1    
    56   28   29 2    
    57   28   30 1    
    58   30   31 1    
    59   30   32 1    
    60   30   92 1    
    61   31   93 1    
    62   31   94 1    
    63   31   95 1    
    64   32   33 am   BACKBONE|DICT|INTERRES
    65   32   96 1    
    66   33   34 2    
    67   33   35 1    
    68   35   36 1    
    69   35   37 1    
    70   35   97 1    
    71   36   98 1    
    72   36   99 1    
    73   36  100 1    
    74   37   38 am   BACKBONE|DICT|INTERRES
    75   37  101 1    
    76   38   39 2    
    77   38   40 1    
    78   40   41 1    
    79   40   42 1    
    80   40  102 1    
    81   41  103 1    
    82   41  104 1    
    83   41  105 1    
    84   42   43 am   BACKBONE|DICT|INTERRES
    85   42  106 1    
    86   43   44 2    
    87   43   45 1    
    88   45   46 1    
    89   45   49 1    
    90   45  107 1    
    91   46   47 1    
    92   46  108 1    
    93   46  109 1    
    94   47   48 1    
    95   48  110 1    
    96   48  111 1    
    97   49   50 am   BACKBONE|DICT|INTERRES
    98   49  112 1    
    99   50   51 2    
   100   50   52 1    
   101   52   53 1    
   102   52   54 1    
   103   52  113 1    
   104   53  114 1    
   105   53  115 1    
   106   53  116 1    
   107   54   55 am   BACKBONE|DICT|INTERRES
   108   54  117 1    
   109   55   56 2    
   110   55   57 1    
   111   57   58 1    
   112   57   59 1    
   113   57  118 1    
   114   58  119 1    
   115   58  120 1    
   116   58  121 1    
   117   59   60 am   BACKBONE|DICT|INTERRES
   118   59  122 1    
   119   60   61 2    
   120   60   62 1    
   121   62   63 1    
   122   62   64 1    
   123   62  123 1    
   124   63  124 1    
   125   63  125 1    
   126   63  126 1    
   127   64   65 am   BACKBONE|DICT|INTERRES
   128   64  127 1    
   129   65   66 2    
@<TRIPOS>SUBSTRUCTURE
     1 UNK         1 GROUP             0       ****    0 ROOT    
