@<TRIPOS>MOLECULE
3R134
127   129    1
SMALL
USER_CHARGES


@<TRIPOS>ATOM
      1 CA         36.0653  -45.0879  -53.5629 C.3       0 UNK        -0.1968 
      2 C          34.8010  -45.8453  -53.1871 C.2       0 UNK         0.4852 
      3 O          34.3553  -46.7042  -53.9470 O.2       0 UNK        -0.5359 
      4 N          34.2151  -45.5338  -52.0228 N.am      1 UNK        -0.4300 
      5 CA         32.9825  -46.1578  -51.5213 C.3       1 UNK         0.0863 
      6 C6         32.2364  -45.2597  -50.5036 C.3       11 UNK        -0.0953 
      7 S7         31.8135  -43.6242  -51.1924 S.3       11 UNK        -0.2369 
      8 C8         30.3667  -44.0384  -52.2189 C.3       11 UNK         0.0226 
      9 C9         30.4992  -43.4767  -53.6264 C.ar      11 UNK        -0.0699 
     10 C10        31.4928  -43.9544  -54.4883 C.ar      11 UNK        -0.0804 
     11 C11        31.6155  -43.4430  -55.7835 C.ar      11 UNK        -0.0871 
     12 C12        30.7294  -42.4546  -56.2188 C.ar      11 UNK        -0.1008 
     13 C13        29.7208  -41.9840  -55.3740 C.ar      11 UNK        -0.0735 
     14 C14        29.6156  -42.4915  -54.0760 C.ar      11 UNK        -0.0945 
     15 C15        28.7380  -40.9333  -55.8651 C.3       11 UNK         0.0169 
     16 S16        27.1664  -41.6864  -56.3871 S.3       11 UNK        -0.2669 
     17 C17        27.6670  -42.5409  -57.9218 C.3       11 UNK        -0.0850 
     18 CA         26.4911  -43.3320  -58.5515 C.3       10 UNK         0.0855 
     19 C          26.8005  -43.8061  -60.0028 C.2       10 UNK         0.5543 
     20 N          26.4148  -45.0091  -60.4128 N.am      10 UNK        -0.7343 
     21 O          27.3864  -43.0618  -60.7851 O.2       10 UNK        -0.5027 
     22 N          26.0583  -44.4268  -57.6687 N.am      10 UNK        -0.4495 
     23 C          24.7901  -44.7068  -57.3515 C.2       10 UNK         0.4903 
     24 O          23.8233  -44.0311  -57.7094 O.2       10 UNK        -0.4860 
     25 CA         24.5764  -45.9791  -56.5074 C.3       9 UNK         0.0227 
     26 CB         23.0925  -46.3896  -56.4062 C.3       9 UNK        -0.1964 
     27 N          25.3881  -47.1184  -56.9575 N.am      9 UNK        -0.4231 
     28 C          25.4160  -47.6624  -58.1865 C.2       9 UNK         0.5014 
     29 O          24.7858  -47.2139  -59.1452 O.2       9 UNK        -0.5270 
     30 CA         26.3107  -48.8963  -58.4166 C.3       8 UNK         0.0284 
     31 CB         27.5189  -48.5217  -59.2916 C.3       8 UNK        -0.1977 
     32 N          26.7940  -49.5271  -57.1876 N.am      8 UNK        -0.4342 
     33 C          26.0392  -50.1735  -56.2897 C.2       8 UNK         0.5039 
     34 O          24.8363  -50.3936  -56.4332 O.2       8 UNK        -0.5547 
     35 CA         26.7392  -50.6059  -54.9895 C.3       7 UNK         0.0281 
     36 CB         27.3318  -52.0169  -55.1347 C.3       7 UNK        -0.1963 
     37 N          27.7864  -49.6717  -54.5571 N.am      7 UNK        -0.4444 
     38 C          27.5790  -48.3974  -54.1916 C.2       7 UNK         0.5104 
     39 O          26.4752  -47.8531  -54.1931 O.2       7 UNK        -0.5100 
     40 CA         28.8216  -47.5890  -53.7862 C.3       6 UNK         0.0396 
     41 CB         29.2883  -48.0004  -52.3817 C.3       6 UNK        -0.1801 
     42 N          29.9184  -47.7506  -54.7429 N.am      6 UNK        -0.4747 
     43 C          29.9071  -47.2577  -55.9938 C.2       6 UNK         0.5012 
     44 O          29.0012  -46.5526  -56.4417 O.2       6 UNK        -0.5003 
     45 CA         31.0709  -47.6853  -56.9197 C.3       5 UNK         0.0782 
     46 C46        32.2777  -46.7211  -56.8145 C.3       11 UNK        -0.0868 
     47 S47        32.0960  -45.2300  -57.8443 S.3       11 UNK        -0.2515 
     48 C48        32.7090  -43.9393  -56.7165 C.3       11 UNK         0.0199 
     49 N          31.4995  -49.0677  -56.6791 N.am      5 UNK        -0.4607 
     50 C          30.7217  -50.1543  -56.7645 C.2       4 UNK         0.5031 
     51 O          29.5580  -50.1192  -57.1585 O.2       4 UNK        -0.5119 
     52 CA         31.3075  -51.5020  -56.2985 C.3       4 UNK         0.0263 
     53 CB         31.5213  -52.4334  -57.5023 C.3       4 UNK        -0.1967 
     54 N          32.5554  -51.4187  -55.5275 N.am      4 UNK        -0.4237 
     55 C          32.7271  -50.7709  -54.3665 C.2       3 UNK         0.4908 
     56 O          31.8436  -50.1098  -53.8107 O.2       3 UNK        -0.5102 
     57 CA         34.1355  -50.8437  -53.7601 C.3       3 UNK         0.0241 
     58 CB         35.1795  -50.1969  -54.6972 C.3       3 UNK        -0.1971 
     59 N          34.1259  -50.1599  -52.4714 N.am      3 UNK        -0.4139 
     60 C          35.0664  -50.2241  -51.5221 C.2       2 UNK         0.5016 
     61 O          36.0651  -50.9433  -51.6037 O.2       2 UNK        -0.5319 
     62 CA         34.8735  -49.3085  -50.2932 C.3       2 UNK         0.0286 
     63 CB         36.1397  -49.2118  -49.4207 C.3       2 UNK        -0.1963 
     64 N          34.4699  -47.9548  -50.6907 N.am      2 UNK        -0.4790 
     65 C          33.2114  -47.5732  -50.9498 C.2       1 UNK         0.5024 
     66 O          32.2458  -48.3186  -50.7895 O.2       1 UNK        -0.4888 
     67 H67        36.8907  -45.7856  -53.7051 H         1 UNK         0.0892 
     68 H68        35.9120  -44.5459  -54.4964 H         1 UNK         0.0892 
     69 H69        36.3548  -44.3691  -52.7954 H         1 UNK         0.0892 
     70 H70        34.6059  -44.8049  -51.4421 H         1 UNK         0.3107 
     71 H71        32.3195  -46.3013  -52.3764 H         1 UNK         0.0773 
     72 H72        31.3160  -45.7371  -50.1601 H         1 UNK         0.0680 
     73 H73        32.8479  -45.1042  -49.6128 H         1 UNK         0.0680 
     74 H74        30.2374  -45.1165  -52.2890 H         1 UNK         0.0650 
     75 H75        29.4703  -43.6575  -51.7274 H         1 UNK         0.0650 
     76 H76        32.1758  -44.7175  -54.1455 H         1 UNK         0.1397 
     77 H77        30.8168  -42.0618  -57.2228 H         1 UNK         0.1363 
     78 H78        28.8352  -42.1259  -53.4225 H         1 UNK         0.1355 
     79 H79        28.5388  -40.2180  -55.0658 H         1 UNK         0.0707 
     80 H80        29.1618  -40.3585  -56.6903 H         1 UNK         0.0707 
     81 H81        28.0455  -41.7842  -58.6116 H         1 UNK         0.1034 
     82 H82        28.4995  -43.2147  -57.7135 H         1 UNK         0.1034 
     83 H83        25.6685  -42.6251  -58.6719 H         1 UNK         0.0482 
     84 H84        26.6178  -45.2886  -61.3590 H         1 UNK         0.3460 
     85 H85        25.8705  -45.6198  -59.8148 H         1 UNK         0.3460 
     86 H86        26.7875  -45.0480  -57.3458 H         1 UNK         0.2989 
     87 H87        24.9217  -45.7385  -55.5010 H         1 UNK         0.0559 
     88 H88        22.4939  -45.5922  -55.9643 H         1 UNK         0.0848 
     89 H89        22.9681  -47.2725  -55.7791 H         1 UNK         0.0848 
     90 H90        22.6679  -46.6118  -57.3857 H         1 UNK         0.0848 
     91 H91        25.9545  -47.5484  -56.2344 H         1 UNK         0.3144 
     92 H92        25.7120  -49.6330  -58.9555 H         1 UNK         0.0727 
     93 H93        28.1533  -47.7803  -58.8050 H         1 UNK         0.0790 
     94 H94        27.1979  -48.0999  -60.2450 H         1 UNK         0.0790 
     95 H95        28.1335  -49.3938  -59.5155 H         1 UNK         0.0790 
     96 H96        27.7998  -49.5009  -57.0302 H         1 UNK         0.3215 
     97 H97        25.9809  -50.6334  -54.2038 H         1 UNK         0.0863 
     98 H98        27.7990  -52.3517  -54.2085 H         1 UNK         0.0808 
     99 H99        28.0786  -52.0641  -55.9273 H         1 UNK         0.0808 
    100 H100       26.5530  -52.7394  -55.3827 H         1 UNK         0.0808 
    101 H101       28.7338  -50.0192  -54.5510 H         1 UNK         0.3118 
    102 H102       28.5447  -46.5328  -53.7584 H         1 UNK         0.0546 
    103 H103       29.6164  -49.0401  -52.3468 H         1 UNK         0.0828 
    104 H104       28.4849  -47.8862  -51.6527 H         1 UNK         0.0828 
    105 H105       30.1179  -47.3850  -52.0428 H         1 UNK         0.0828 
    106 H106       30.6810  -48.3596  -54.4662 H         1 UNK         0.3005 
    107 H107       30.6881  -47.6595  -57.9426 H         1 UNK         0.1257 
    108 H108       32.4723  -46.4525  -55.7757 H         1 UNK         0.0775 
    109 H109       33.1880  -47.2136  -57.1606 H         1 UNK         0.0775 
    110 H110       33.5651  -44.3107  -56.1504 H         1 UNK         0.0840 
    111 H111       33.0836  -43.1054  -57.3121 H         1 UNK         0.0840 
    112 H112       32.4408  -49.1902  -56.3379 H         1 UNK         0.2987 
    113 H113       30.5601  -51.9575  -55.6463 H         1 UNK         0.0785 
    114 H114       30.6007  -52.5490  -58.0767 H         1 UNK         0.0798 
    115 H115       31.8273  -53.4306  -57.1855 H         1 UNK         0.0798 
    116 H116       32.2819  -52.0464  -58.1816 H         1 UNK         0.0798 
    117 H117       33.3427  -51.9225  -55.9110 H         1 UNK         0.3079 
    118 H118       34.3829  -51.8950  -53.5980 H         1 UNK         0.0794 
    119 H119       36.1808  -50.2318  -54.2677 H         1 UNK         0.0786 
    120 H120       34.9436  -49.1511  -54.8982 H         1 UNK         0.0786 
    121 H121       35.2333  -50.7109  -55.6573 H         1 UNK         0.0786 
    122 H122       33.2958  -49.5975  -52.3084 H         1 UNK         0.3032 
    123 H123       34.0854  -49.7585  -49.6847 H         1 UNK         0.1094 
    124 H124       36.9834  -48.8019  -49.9773 H         1 UNK         0.0794 
    125 H125       35.9731  -48.5792  -48.5487 H         1 UNK         0.0794 
    126 H126       36.4375  -50.1943  -49.0517 H         1 UNK         0.0794 
    127 H127       35.2138  -47.3002  -50.8861 H         1 UNK         0.3016 
@<TRIPOS>BOND
     1    1    2 1    
     2    1   67 1    
     3    1   68 1    
     4    1   69 1    
     5    2    3 2    
     6    2    4 am   BACKBONE|DICT|INTERRES
     7    4    5 1    
     8    4   70 1    
     9    5    6 1    
    10    5   65 1    
    11    5   71 1    
    12    6    7 1    
    13    6   72 1    
    14    6   73 1    
    15    7    8 1    
    16    8    9 1    
    17    8   74 1    
    18    8   75 1    
    19    9   10 ar   
    20    9   14 ar   
    21   10   11 ar   
    22   10   76 1    
    23   11   12 ar   
    24   11   48 1    
    25   12   13 ar   
    26   12   77 1    
    27   13   14 ar   
    28   13   15 1    
    29   14   78 1    
    30   15   16 1    
    31   15   79 1    
    32   15   80 1    
    33   16   17 1    
    34   17   18 1    
    35   17   81 1    
    36   17   82 1    
    37   18   19 1    
    38   18   22 1    
    39   18   83 1    
    40   19   20 am   BACKBONE|DICT|INTERRES
    41   19   21 2    
    42   20   84 1    
    43   20   85 1    
    44   22   23 am   BACKBONE|DICT|INTERRES
    45   22   86 1    
    46   23   24 2    
    47   23   25 1    
    48   25   26 1    
    49   25   27 1    
    50   25   87 1    
    51   26   88 1    
    52   26   89 1    
    53   26   90 1    
    54   27   28 am   BACKBONE|DICT|INTERRES
    55   27   91 1    
    56   28   29 2    
    57   28   30 1    
    58   30   31 1    
    59   30   32 1    
    60   30   92 1    
    61   31   93 1    
    62   31   94 1    
    63   31   95 1    
    64   32   33 am   BACKBONE|DICT|INTERRES
    65   32   96 1    
    66   33   34 2    
    67   33   35 1    
    68   35   36 1    
    69   35   37 1    
    70   35   97 1    
    71   36   98 1    
    72   36   99 1    
    73   36  100 1    
    74   37   38 am   BACKBONE|DICT|INTERRES
    75   37  101 1    
    76   38   39 2    
    77   38   40 1    
    78   40   41 1    
    79   40   42 1    
    80   40  102 1    
    81   41  103 1    
    82   41  104 1    
    83   41  105 1    
    84   42   43 am   BACKBONE|DICT|INTERRES
    85   42  106 1    
    86   43   44 2    
    87   43   45 1    
    88   45   46 1    
    89   45   49 1    
    90   45  107 1    
    91   46   47 1    
    92   46  108 1    
    93   46  109 1    
    94   47   48 1    
    95   48  110 1    
    96   48  111 1    
    97   49   50 am   BACKBONE|DICT|INTERRES
    98   49  112 1    
    99   50   51 2    
   100   50   52 1    
   101   52   53 1    
   102   52   54 1    
   103   52  113 1    
   104   53  114 1    
   105   53  115 1    
   106   53  116 1    
   107   54   55 am   BACKBONE|DICT|INTERRES
   108   54  117 1    
   109   55   56 2    
   110   55   57 1    
   111   57   58 1    
   112   57   59 1    
   113   57  118 1    
   114   58  119 1    
   115   58  120 1    
   116   58  121 1    
   117   59   60 am   BACKBONE|DICT|INTERRES
   118   59  122 1    
   119   60   61 2    
   120   60   62 1    
   121   62   63 1    
   122   62   64 1    
   123   62  123 1    
   124   63  124 1    
   125   63  125 1    
   126   63  126 1    
   127   64   65 am   BACKBONE|DICT|INTERRES
   128   64  127 1    
   129   65   66 2    
@<TRIPOS>SUBSTRUCTURE
     1 UNK         1 GROUP             0       ****    0 ROOT    
