@<TRIPOS>MOLECULE
3R134
127   129    1
SMALL
USER_CHARGES


@<TRIPOS>ATOM
      1 CA         31.9681  -49.4350  -58.1476 C.3       0 UNK        -0.1968 
      2 C          32.4400  -48.9692  -56.7796 C.2       0 UNK         0.4852 
      3 O          32.3908  -49.7451  -55.8259 O.2       0 UNK        -0.5359 
      4 N          32.9185  -47.7193  -56.6851 N.am      1 UNK        -0.4300 
      5 CA         33.3359  -47.0243  -55.4550 C.3       1 UNK         0.0863 
      6 C6         33.8957  -45.6068  -55.7476 C.3       11 UNK        -0.0953 
      7 S7         32.8694  -44.6176  -56.8873 S.3       11 UNK        -0.2369 
      8 C8         32.7090  -43.0406  -55.9942 C.3       11 UNK         0.0226 
      9 C9         31.5536  -43.0605  -55.0058 C.ar      11 UNK        -0.0699 
     10 C10        31.7874  -43.1081  -53.6281 C.ar      11 UNK        -0.0804 
     11 C11        30.7163  -43.0809  -52.7290 C.ar      11 UNK        -0.0871 
     12 C12        29.4080  -43.0099  -53.2187 C.ar      11 UNK        -0.1008 
     13 C13        29.1586  -42.9845  -54.5930 C.ar      11 UNK        -0.0735 
     14 C14        30.2402  -43.0022  -55.4794 C.ar      11 UNK        -0.0945 
     15 C15        27.7186  -42.9896  -55.0974 C.3       11 UNK         0.0169 
     16 S16        27.4315  -41.8519  -56.4936 S.3       11 UNK        -0.2669 
     17 C17        25.6687  -42.1928  -56.8324 C.3       11 UNK        -0.0850 
     18 CA         25.3678  -42.5999  -58.2986 C.3       10 UNK         0.0855 
     19 C          25.4980  -41.4009  -59.2859 C.2       10 UNK         0.5543 
     20 N          26.3413  -41.4684  -60.3095 N.am      10 UNK        -0.7343 
     21 O          24.8058  -40.3979  -59.1286 O.2       10 UNK        -0.5027 
     22 N          26.0868  -43.8227  -58.7063 N.am      10 UNK        -0.4495 
     23 C          25.6393  -44.6677  -59.6457 C.2       10 UNK         0.4903 
     24 O          24.5436  -44.5490  -60.1963 O.2       10 UNK        -0.4860 
     25 CA         26.5514  -45.8280  -60.0872 C.3       9 UNK         0.0227 
     26 CB         27.1480  -45.5321  -61.4741 C.3       9 UNK        -0.1964 
     27 N          27.6417  -46.1762  -59.1704 N.am      9 UNK        -0.4231 
     28 C          27.4903  -46.7703  -57.9796 C.2       9 UNK         0.5014 
     29 O          26.4005  -46.9404  -57.4281 O.2       9 UNK        -0.5270 
     30 CA         28.7916  -47.2503  -57.3078 C.3       8 UNK         0.0284 
     31 CB         29.4982  -46.0981  -56.5861 C.3       8 UNK        -0.1977 
     32 N          28.5683  -48.3286  -56.3467 N.am      8 UNK        -0.4342 
     33 C          28.1702  -49.5708  -56.6500 C.2       8 UNK         0.5039 
     34 O          28.0152  -49.9787  -57.8026 O.2       8 UNK        -0.5547 
     35 CA         27.9116  -50.5295  -55.4755 C.3       7 UNK         0.0281 
     36 CB         29.0977  -51.4927  -55.2956 C.3       7 UNK        -0.1963 
     37 N          27.6649  -49.8158  -54.2177 N.am      7 UNK        -0.4444 
     38 C          26.4584  -49.3874  -53.8160 C.2       7 UNK         0.5104 
     39 O          25.4210  -49.5877  -54.4481 O.2       7 UNK        -0.5100 
     40 CA         26.3734  -48.6271  -52.4769 C.3       6 UNK         0.0396 
     41 CB         25.8632  -49.5615  -51.3678 C.3       6 UNK        -0.1801 
     42 N          27.6458  -48.0393  -52.0523 N.am      6 UNK        -0.4747 
     43 C          28.1898  -46.9270  -52.5693 C.2       6 UNK         0.5012 
     44 O          27.6358  -46.2313  -53.4187 O.2       6 UNK        -0.5003 
     45 CA         29.6132  -46.5592  -52.0908 C.3       5 UNK         0.0782 
     46 C46        29.5589  -45.5545  -50.9156 C.3       11 UNK        -0.0868 
     47 S47        31.1967  -44.8120  -50.6039 S.3       11 UNK        -0.2515 
     48 C48        30.9692  -43.1147  -51.2277 C.3       11 UNK         0.0199 
     49 N          30.4079  -47.7453  -51.7387 N.am      5 UNK        -0.4607 
     50 C          30.7224  -48.7293  -52.5869 C.2       4 UNK         0.5031 
     51 O          30.4183  -48.7186  -53.7795 O.2       4 UNK        -0.5119 
     52 CA         31.3539  -49.9787  -51.9707 C.3       4 UNK         0.0263 
     53 CB         30.2384  -50.9020  -51.4326 C.3       4 UNK        -0.1967 
     54 N          32.1647  -50.6669  -52.9733 N.am      4 UNK        -0.4237 
     55 C          32.9859  -51.6969  -52.7230 C.2       3 UNK         0.4908 
     56 O          33.1310  -52.2114  -51.6132 O.2       3 UNK        -0.5102 
     57 CA         33.8224  -52.2188  -53.8975 C.3       3 UNK         0.0241 
     58 CB         32.9498  -52.9369  -54.9422 C.3       3 UNK        -0.1971 
     59 N          34.5560  -51.1144  -54.5123 N.am      3 UNK        -0.4139 
     60 C          35.7365  -50.6589  -54.0670 C.2       2 UNK         0.5016 
     61 O          36.3877  -51.2042  -53.1746 O.2       2 UNK        -0.5319 
     62 CA         36.2992  -49.3810  -54.7151 C.3       2 UNK         0.0286 
     63 CB         37.3385  -49.7366  -55.7907 C.3       2 UNK        -0.1963 
     64 N          35.2724  -48.5228  -55.3086 N.am      2 UNK        -0.4790 
     65 C          34.3698  -47.8086  -54.6189 C.2       1 UNK         0.5024 
     66 O          34.3286  -47.7584  -53.3894 O.2       1 UNK        -0.4888 
     67 H67        32.6090  -50.2377  -58.5106 H         1 UNK         0.0892 
     68 H68        30.9503  -49.8179  -58.0797 H         1 UNK         0.0892 
     69 H69        31.9793  -48.6288  -58.8806 H         1 UNK         0.0892 
     70 H70        32.9380  -47.1392  -57.5121 H         1 UNK         0.3107 
     71 H71        32.4411  -46.9189  -54.8379 H         1 UNK         0.0773 
     72 H72        34.0213  -45.0614  -54.8104 H         1 UNK         0.0680 
     73 H73        34.8898  -45.6698  -56.1952 H         1 UNK         0.0680 
     74 H74        32.5349  -42.2479  -56.7233 H         1 UNK         0.0650 
     75 H75        33.6496  -42.7929  -55.4999 H         1 UNK         0.0650 
     76 H76        32.8010  -43.1570  -53.2540 H         1 UNK         0.1397 
     77 H77        28.5766  -42.9892  -52.5280 H         1 UNK         0.1363 
     78 H78        30.0629  -42.9786  -56.5455 H         1 UNK         0.1355 
     79 H79        27.0352  -42.7169  -54.2885 H         1 UNK         0.0707 
     80 H80        27.4494  -44.0047  -55.3975 H         1 UNK         0.0707 
     81 H81        25.3155  -42.9841  -56.1695 H         1 UNK         0.1034 
     82 H82        25.0888  -41.3109  -56.5526 H         1 UNK         0.1034 
     83 H83        24.3031  -42.8426  -58.3134 H         1 UNK         0.0482 
     84 H84        26.9138  -42.2851  -60.4446 H         1 UNK         0.3460 
     85 H85        26.4115  -40.6890  -60.9447 H         1 UNK         0.3460 
     86 H86        26.9992  -43.9666  -58.3003 H         1 UNK         0.2989 
     87 H87        25.9127  -46.7089  -60.1809 H         1 UNK         0.0559 
     88 H88        26.3648  -45.2998  -62.1976 H         1 UNK         0.0848 
     89 H89        27.6957  -46.3906  -61.8635 H         1 UNK         0.0848 
     90 H90        27.8296  -44.6809  -61.4494 H         1 UNK         0.0848 
     91 H91        28.5784  -46.0533  -59.5280 H         1 UNK         0.3144 
     92 H92        29.4558  -47.6323  -58.0855 H         1 UNK         0.0727 
     93 H93        28.8930  -45.7105  -55.7687 H         1 UNK         0.0790 
     94 H94        29.7098  -45.2740  -57.2674 H         1 UNK         0.0790 
     95 H95        30.4475  -46.4191  -56.1605 H         1 UNK         0.0790 
     96 H96        28.6912  -48.0972  -55.3710 H         1 UNK         0.3215 
     97 H97        27.0327  -51.1265  -55.7292 H         1 UNK         0.0863 
     98 H98        30.0219  -50.9610  -55.0717 H         1 UNK         0.0808 
     99 H99        29.2720  -52.0681  -56.2057 H         1 UNK         0.0808 
    100 H100       28.9149  -52.2062  -54.4924 H         1 UNK         0.0808 
    101 H101       28.4843  -49.5601  -53.6811 H         1 UNK         0.3118 
    102 H102       25.6460  -47.8220  -52.6029 H         1 UNK         0.0546 
    103 H103       26.5498  -50.3898  -51.1879 H         1 UNK         0.0828 
    104 H104       24.8972  -49.9926  -51.6346 H         1 UNK         0.0828 
    105 H105       25.7269  -49.0262  -50.4280 H         1 UNK         0.0828 
    106 H106       28.1633  -48.5381  -51.3436 H         1 UNK         0.3005 
    107 H107       30.1023  -46.0747  -52.9404 H         1 UNK         0.1257 
    108 H108       29.2247  -46.0502  -50.0023 H         1 UNK         0.0775 
    109 H109       28.8317  -44.7632  -51.0986 H         1 UNK         0.0775 
    110 H110       30.1496  -42.6364  -50.6889 H         1 UNK         0.0840 
    111 H111       31.8618  -42.5322  -50.9942 H         1 UNK         0.0840 
    112 H112       30.6943  -47.8150  -50.7727 H         1 UNK         0.2987 
    113 H113       32.0077  -49.6716  -51.1517 H         1 UNK         0.0785 
    114 H114       29.5973  -50.3784  -50.7227 H         1 UNK         0.0798 
    115 H115       30.6437  -51.7651  -50.9056 H         1 UNK         0.0798 
    116 H116       29.6020  -51.2746  -52.2357 H         1 UNK         0.0798 
    117 H117       32.1075  -50.2790  -53.9147 H         1 UNK         0.3079 
    118 H118       34.5339  -52.9502  -53.5073 H         1 UNK         0.0794 
    119 H119       33.5553  -53.3256  -55.7610 H         1 UNK         0.0786 
    120 H120       32.1913  -52.2830  -55.3713 H         1 UNK         0.0786 
    121 H121       32.4289  -53.7837  -54.4938 H         1 UNK         0.0786 
    122 H122       34.0419  -50.5640  -55.1940 H         1 UNK         0.3032 
    123 H123       36.8004  -48.8139  -53.9270 H         1 UNK         0.1094 
    124 H124       36.8929  -50.2953  -56.6148 H         1 UNK         0.0794 
    125 H125       37.8061  -48.8423  -56.2032 H         1 UNK         0.0794 
    126 H126       38.1362  -50.3531  -55.3734 H         1 UNK         0.0794 
    127 H127       35.2222  -48.5018  -56.3172 H         1 UNK         0.3016 
@<TRIPOS>BOND
     1    1    2 1    
     2    1   67 1    
     3    1   68 1    
     4    1   69 1    
     5    2    3 2    
     6    2    4 am   BACKBONE|DICT|INTERRES
     7    4    5 1    
     8    4   70 1    
     9    5    6 1    
    10    5   65 1    
    11    5   71 1    
    12    6    7 1    
    13    6   72 1    
    14    6   73 1    
    15    7    8 1    
    16    8    9 1    
    17    8   74 1    
    18    8   75 1    
    19    9   10 ar   
    20    9   14 ar   
    21   10   11 ar   
    22   10   76 1    
    23   11   12 ar   
    24   11   48 1    
    25   12   13 ar   
    26   12   77 1    
    27   13   14 ar   
    28   13   15 1    
    29   14   78 1    
    30   15   16 1    
    31   15   79 1    
    32   15   80 1    
    33   16   17 1    
    34   17   18 1    
    35   17   81 1    
    36   17   82 1    
    37   18   19 1    
    38   18   22 1    
    39   18   83 1    
    40   19   20 am   BACKBONE|DICT|INTERRES
    41   19   21 2    
    42   20   84 1    
    43   20   85 1    
    44   22   23 am   BACKBONE|DICT|INTERRES
    45   22   86 1    
    46   23   24 2    
    47   23   25 1    
    48   25   26 1    
    49   25   27 1    
    50   25   87 1    
    51   26   88 1    
    52   26   89 1    
    53   26   90 1    
    54   27   28 am   BACKBONE|DICT|INTERRES
    55   27   91 1    
    56   28   29 2    
    57   28   30 1    
    58   30   31 1    
    59   30   32 1    
    60   30   92 1    
    61   31   93 1    
    62   31   94 1    
    63   31   95 1    
    64   32   33 am   BACKBONE|DICT|INTERRES
    65   32   96 1    
    66   33   34 2    
    67   33   35 1    
    68   35   36 1    
    69   35   37 1    
    70   35   97 1    
    71   36   98 1    
    72   36   99 1    
    73   36  100 1    
    74   37   38 am   BACKBONE|DICT|INTERRES
    75   37  101 1    
    76   38   39 2    
    77   38   40 1    
    78   40   41 1    
    79   40   42 1    
    80   40  102 1    
    81   41  103 1    
    82   41  104 1    
    83   41  105 1    
    84   42   43 am   BACKBONE|DICT|INTERRES
    85   42  106 1    
    86   43   44 2    
    87   43   45 1    
    88   45   46 1    
    89   45   49 1    
    90   45  107 1    
    91   46   47 1    
    92   46  108 1    
    93   46  109 1    
    94   47   48 1    
    95   48  110 1    
    96   48  111 1    
    97   49   50 am   BACKBONE|DICT|INTERRES
    98   49  112 1    
    99   50   51 2    
   100   50   52 1    
   101   52   53 1    
   102   52   54 1    
   103   52  113 1    
   104   53  114 1    
   105   53  115 1    
   106   53  116 1    
   107   54   55 am   BACKBONE|DICT|INTERRES
   108   54  117 1    
   109   55   56 2    
   110   55   57 1    
   111   57   58 1    
   112   57   59 1    
   113   57  118 1    
   114   58  119 1    
   115   58  120 1    
   116   58  121 1    
   117   59   60 am   BACKBONE|DICT|INTERRES
   118   59  122 1    
   119   60   61 2    
   120   60   62 1    
   121   62   63 1    
   122   62   64 1    
   123   62  123 1    
   124   63  124 1    
   125   63  125 1    
   126   63  126 1    
   127   64   65 am   BACKBONE|DICT|INTERRES
   128   64  127 1    
   129   65   66 2    
@<TRIPOS>SUBSTRUCTURE
     1 UNK         1 GROUP             0       ****    0 ROOT    
