@<TRIPOS>MOLECULE
3R134
127   129    1
SMALL
USER_CHARGES


@<TRIPOS>ATOM
      1 CA         35.4984  -46.6090  -60.7800 C.3       0 UNK        -0.1968 
      2 C          35.1509  -46.9001  -59.3271 C.2       0 UNK         0.4852 
      3 O          36.0349  -46.8527  -58.4701 O.2       0 UNK        -0.5359 
      4 N          33.8718  -47.1934  -59.0518 N.am      1 UNK        -0.4300 
      5 CA         33.3265  -47.5525  -57.7368 C.3       1 UNK         0.0863 
      6 C6         33.4852  -46.4141  -56.6840 C.3       11 UNK        -0.0953 
      7 S7         32.0988  -46.3414  -55.5020 S.3       11 UNK        -0.2369 
      8 C8         32.3767  -44.6911  -54.7924 C.3       11 UNK         0.0226 
      9 C9         31.1962  -44.2565  -53.9406 C.ar      11 UNK        -0.0699 
     10 C10        31.2706  -44.2829  -52.5458 C.ar      11 UNK        -0.0804 
     11 C11        30.1769  -43.8815  -51.7726 C.ar      11 UNK        -0.0871 
     12 C12        29.0065  -43.4511  -52.4090 C.ar      11 UNK        -0.1008 
     13 C13        28.9179  -43.4118  -53.8051 C.ar      11 UNK        -0.0735 
     14 C14        30.0273  -43.8106  -54.5607 C.ar      11 UNK        -0.0945 
     15 C15        27.6197  -42.9126  -54.4464 C.3       11 UNK         0.0169 
     16 S16        27.4062  -43.3408  -56.2116 S.3       11 UNK        -0.2669 
     17 C17        25.6425  -42.9416  -56.4621 C.3       11 UNK        -0.0850 
     18 CA         24.7459  -44.2144  -56.4543 C.3       10 UNK         0.0855 
     19 C          23.2213  -43.8874  -56.4135 C.2       10 UNK         0.5543 
     20 N          22.3538  -44.7322  -56.9573 N.am      10 UNK        -0.7343 
     21 O          22.8117  -42.8742  -55.8519 O.2       10 UNK        -0.5027 
     22 N          25.1466  -45.2008  -57.4768 N.am      10 UNK        -0.4495 
     23 C          25.0571  -45.0430  -58.8047 C.2       10 UNK         0.4903 
     24 O          24.5813  -44.0489  -59.3561 O.2       10 UNK        -0.4860 
     25 CA         25.6124  -46.2067  -59.6443 C.3       9 UNK         0.0227 
     26 CB         25.3658  -46.0434  -61.1599 C.3       9 UNK        -0.1964 
     27 N          27.0300  -46.4483  -59.3531 N.am      9 UNK        -0.4231 
     28 C          28.0708  -45.6255  -59.5610 C.2       9 UNK         0.5014 
     29 O          27.9768  -44.5333  -60.1232 O.2       9 UNK        -0.5270 
     30 CA         29.4548  -46.0952  -59.0560 C.3       8 UNK         0.0284 
     31 CB         30.3689  -44.9093  -58.6956 C.3       8 UNK        -0.1977 
     32 N          29.3627  -46.9940  -57.9003 N.am      8 UNK        -0.4342 
     33 C          29.1638  -48.3177  -57.9592 C.2       8 UNK         0.5039 
     34 O          29.1121  -48.9483  -59.0144 O.2       8 UNK        -0.5547 
     35 CA         28.9257  -49.0596  -56.6319 C.3       7 UNK         0.0281 
     36 CB         30.1949  -49.7963  -56.1806 C.3       7 UNK        -0.1963 
     37 N          28.4539  -48.2027  -55.5402 N.am      7 UNK        -0.4444 
     38 C          27.2704  -47.5733  -55.5005 C.2       7 UNK         0.5104 
     39 O          26.4521  -47.6057  -56.4217 O.2       7 UNK        -0.5100 
     40 CA         26.9574  -46.7136  -54.2620 C.3       6 UNK         0.0396 
     41 CB         25.5668  -47.0282  -53.6721 C.3       6 UNK        -0.1801 
     42 N          28.0063  -46.7080  -53.2326 N.am      6 UNK        -0.4747 
     43 C          28.3382  -47.6929  -52.3849 C.2       6 UNK         0.5012 
     44 O          27.7718  -48.7869  -52.3346 O.2       6 UNK        -0.5003 
     45 CA         29.5041  -47.3725  -51.4302 C.3       5 UNK         0.0782 
     46 C46        29.0414  -46.4426  -50.2808 C.3       11 UNK        -0.0868 
     47 S47        30.4657  -45.5687  -49.5555 S.3       11 UNK        -0.2515 
     48 C48        30.2631  -43.8924  -50.2492 C.3       11 UNK         0.0199 
     49 N          30.1360  -48.5898  -50.9138 N.am      5 UNK        -0.4607 
     50 C          30.8807  -49.4251  -51.6449 C.2       4 UNK         0.5031 
     51 O          31.1511  -49.2456  -52.8346 O.2       4 UNK        -0.5119 
     52 CA         31.3694  -50.6960  -50.9355 C.3       4 UNK         0.0263 
     53 CB         30.4424  -51.8780  -51.2633 C.3       4 UNK        -0.1967 
     54 N          32.7253  -51.0169  -51.3726 N.am      4 UNK        -0.4237 
     55 C          33.8448  -50.5355  -50.8151 C.2       3 UNK         0.4908 
     56 O          33.8661  -49.8741  -49.7762 O.2       3 UNK        -0.5102 
     57 CA         35.1690  -50.8349  -51.5460 C.3       3 UNK         0.0241 
     58 CB         35.8260  -52.1031  -50.9765 C.3       3 UNK        -0.1971 
     59 N          34.9988  -50.9818  -52.9962 N.am      3 UNK        -0.4139 
     60 C          34.6586  -49.9771  -53.8156 C.2       2 UNK         0.5016 
     61 O          34.5811  -48.7985  -53.4553 O.2       2 UNK        -0.5319 
     62 CA         34.3248  -50.3560  -55.2664 C.3       2 UNK         0.0286 
     63 CB         33.2429  -51.4547  -55.3397 C.3       2 UNK        -0.1963 
     64 N          33.8584  -49.1530  -55.9474 N.am      2 UNK        -0.4790 
     65 C          33.8403  -48.9348  -57.2644 C.2       1 UNK         0.5024 
     66 O          34.1802  -49.7829  -58.0937 O.2       1 UNK        -0.4888 
     67 H67        35.9218  -45.6090  -60.8712 H         1 UNK         0.0892 
     68 H68        36.2362  -47.3258  -61.1395 H         1 UNK         0.0892 
     69 H69        34.6250  -46.6671  -61.4293 H         1 UNK         0.0892 
     70 H70        33.2126  -47.2497  -59.8152 H         1 UNK         0.3107 
     71 H71        32.2608  -47.6943  -57.9206 H         1 UNK         0.0773 
     72 H72        34.4311  -46.4859  -56.1433 H         1 UNK         0.0680 
     73 H73        33.5175  -45.4500  -57.1938 H         1 UNK         0.0680 
     74 H74        32.5259  -43.9662  -55.5940 H         1 UNK         0.0650 
     75 H75        33.2969  -44.7023  -54.2062 H         1 UNK         0.0650 
     76 H76        32.1766  -44.6188  -52.0595 H         1 UNK         0.1397 
     77 H77        28.1603  -43.1336  -51.8142 H         1 UNK         0.1363 
     78 H78        29.9988  -43.7772  -55.6392 H         1 UNK         0.1355 
     79 H79        26.7727  -43.3171  -53.8898 H         1 UNK         0.0707 
     80 H80        27.5727  -41.8279  -54.3418 H         1 UNK         0.0707 
     81 H81        25.3298  -42.2373  -55.6892 H         1 UNK         0.1034 
     82 H82        25.5379  -42.4078  -57.4078 H         1 UNK         0.1034 
     83 H83        24.9212  -44.7097  -55.5005 H         1 UNK         0.0482 
     84 H84        22.6764  -45.5710  -57.4123 H         1 UNK         0.3460 
     85 H85        21.3686  -44.5231  -56.9194 H         1 UNK         0.3460 
     86 H86        25.5529  -46.0625  -57.1229 H         1 UNK         0.2989 
     87 H87        25.0787  -47.1026  -59.3232 H         1 UNK         0.0559 
     88 H88        24.2988  -45.9674  -61.3724 H         1 UNK         0.0848 
     89 H89        25.7476  -46.8978  -61.7185 H         1 UNK         0.0848 
     90 H90        25.8374  -45.1446  -61.5582 H         1 UNK         0.0848 
     91 H91        27.2254  -47.3129  -58.8664 H         1 UNK         0.3144 
     92 H92        29.9242  -46.6322  -59.8828 H         1 UNK         0.0727 
     93 H93        31.3419  -45.2463  -58.3426 H         1 UNK         0.0790 
     94 H94        29.9262  -44.2826  -57.9217 H         1 UNK         0.0790 
     95 H95        30.5488  -44.2737  -59.5635 H         1 UNK         0.0790 
     96 H96        29.3737  -46.5581  -56.9893 H         1 UNK         0.3215 
     97 H97        28.1512  -49.8060  -56.8216 H         1 UNK         0.0863 
     98 H98        29.9911  -50.4449  -55.3283 H         1 UNK         0.0808 
     99 H99        30.9812  -49.1025  -55.8854 H         1 UNK         0.0808 
    100 H100       30.5933  -50.4250  -56.9782 H         1 UNK         0.0808 
    101 H101       29.0600  -48.1206  -54.7362 H         1 UNK         0.3118 
    102 H102       26.9201  -45.6912  -54.6290 H         1 UNK         0.0546 
    103 H103       25.4907  -48.0596  -53.3282 H         1 UNK         0.0828 
    104 H104       24.7826  -46.8867  -54.4164 H         1 UNK         0.0828 
    105 H105       25.3351  -46.3744  -52.8315 H         1 UNK         0.0828 
    106 H106       28.5431  -45.8500  -53.1896 H         1 UNK         0.3005 
    107 H107       30.2558  -46.8531  -52.0292 H         1 UNK         0.1257 
    108 H108       28.5351  -47.0112  -49.4987 H         1 UNK         0.0775 
    109 H109       28.3146  -45.7016  -50.6191 H         1 UNK         0.0775 
    110 H110       29.3767  -43.4347  -49.8072 H         1 UNK         0.0840 
    111 H111       31.1083  -43.2778  -49.9363 H         1 UNK         0.0840 
    112 H112       29.9345  -48.8219  -49.9527 H         1 UNK         0.2987 
    113 H113       31.3613  -50.5358  -49.8549 H         1 UNK         0.0785 
    114 H114       29.4218  -51.6748  -50.9357 H         1 UNK         0.0798 
    115 H115       30.7686  -52.7896  -50.7621 H         1 UNK         0.0798 
    116 H116       30.4051  -52.0778  -52.3352 H         1 UNK         0.0798 
    117 H117       32.8039  -51.5020  -52.2532 H         1 UNK         0.3079 
    118 H118       35.8404  -49.9922  -51.3668 H         1 UNK         0.0794 
    119 H119       36.7992  -52.2855  -51.4329 H         1 UNK         0.0786 
    120 H120       35.2075  -52.9872  -51.1365 H         1 UNK         0.0786 
    121 H121       35.9872  -52.0087  -49.9016 H         1 UNK         0.0786 
    122 H122       35.0761  -51.9167  -53.3706 H         1 UNK         0.3032 
    123 H123       35.2423  -50.7044  -55.7461 H         1 UNK         0.1094 
    124 H124       32.3533  -51.1769  -54.7731 H         1 UNK         0.0794 
    125 H125       32.9355  -51.6477  -56.3675 H         1 UNK         0.0794 
    126 H126       33.6054  -52.4013  -54.9388 H         1 UNK         0.0794 
    127 H127       33.6061  -48.4003  -55.3140 H         1 UNK         0.3016 
@<TRIPOS>BOND
     1    1    2 1    
     2    1   67 1    
     3    1   68 1    
     4    1   69 1    
     5    2    3 2    
     6    2    4 am   BACKBONE|DICT|INTERRES
     7    4    5 1    
     8    4   70 1    
     9    5    6 1    
    10    5   65 1    
    11    5   71 1    
    12    6    7 1    
    13    6   72 1    
    14    6   73 1    
    15    7    8 1    
    16    8    9 1    
    17    8   74 1    
    18    8   75 1    
    19    9   10 ar   
    20    9   14 ar   
    21   10   11 ar   
    22   10   76 1    
    23   11   12 ar   
    24   11   48 1    
    25   12   13 ar   
    26   12   77 1    
    27   13   14 ar   
    28   13   15 1    
    29   14   78 1    
    30   15   16 1    
    31   15   79 1    
    32   15   80 1    
    33   16   17 1    
    34   17   18 1    
    35   17   81 1    
    36   17   82 1    
    37   18   19 1    
    38   18   22 1    
    39   18   83 1    
    40   19   20 am   BACKBONE|DICT|INTERRES
    41   19   21 2    
    42   20   84 1    
    43   20   85 1    
    44   22   23 am   BACKBONE|DICT|INTERRES
    45   22   86 1    
    46   23   24 2    
    47   23   25 1    
    48   25   26 1    
    49   25   27 1    
    50   25   87 1    
    51   26   88 1    
    52   26   89 1    
    53   26   90 1    
    54   27   28 am   BACKBONE|DICT|INTERRES
    55   27   91 1    
    56   28   29 2    
    57   28   30 1    
    58   30   31 1    
    59   30   32 1    
    60   30   92 1    
    61   31   93 1    
    62   31   94 1    
    63   31   95 1    
    64   32   33 am   BACKBONE|DICT|INTERRES
    65   32   96 1    
    66   33   34 2    
    67   33   35 1    
    68   35   36 1    
    69   35   37 1    
    70   35   97 1    
    71   36   98 1    
    72   36   99 1    
    73   36  100 1    
    74   37   38 am   BACKBONE|DICT|INTERRES
    75   37  101 1    
    76   38   39 2    
    77   38   40 1    
    78   40   41 1    
    79   40   42 1    
    80   40  102 1    
    81   41  103 1    
    82   41  104 1    
    83   41  105 1    
    84   42   43 am   BACKBONE|DICT|INTERRES
    85   42  106 1    
    86   43   44 2    
    87   43   45 1    
    88   45   46 1    
    89   45   49 1    
    90   45  107 1    
    91   46   47 1    
    92   46  108 1    
    93   46  109 1    
    94   47   48 1    
    95   48  110 1    
    96   48  111 1    
    97   49   50 am   BACKBONE|DICT|INTERRES
    98   49  112 1    
    99   50   51 2    
   100   50   52 1    
   101   52   53 1    
   102   52   54 1    
   103   52  113 1    
   104   53  114 1    
   105   53  115 1    
   106   53  116 1    
   107   54   55 am   BACKBONE|DICT|INTERRES
   108   54  117 1    
   109   55   56 2    
   110   55   57 1    
   111   57   58 1    
   112   57   59 1    
   113   57  118 1    
   114   58  119 1    
   115   58  120 1    
   116   58  121 1    
   117   59   60 am   BACKBONE|DICT|INTERRES
   118   59  122 1    
   119   60   61 2    
   120   60   62 1    
   121   62   63 1    
   122   62   64 1    
   123   62  123 1    
   124   63  124 1    
   125   63  125 1    
   126   63  126 1    
   127   64   65 am   BACKBONE|DICT|INTERRES
   128   64  127 1    
   129   65   66 2    
@<TRIPOS>SUBSTRUCTURE
     1 UNK         1 GROUP             0       ****    0 ROOT    
