@<TRIPOS>MOLECULE
3R134
127   129    1
SMALL
USER_CHARGES


@<TRIPOS>ATOM
      1 CA         39.3523  -42.5987  -54.6110 C.3       0 UNK        -0.1968 
      2 C          38.1483  -43.2979  -53.9965 C.2       0 UNK         0.4852 
      3 O          38.2384  -43.7818  -52.8674 O.2       0 UNK        -0.5359 
      4 N          37.0282  -43.3499  -54.7335 N.am      1 UNK        -0.4300 
      5 CA         35.7607  -43.9897  -54.3513 C.3       1 UNK         0.0863 
      6 C6         35.0700  -43.2966  -53.1368 C.3       11 UNK        -0.0953 
      7 S7         33.2926  -42.9863  -53.3991 S.3       11 UNK        -0.2369 
      8 C8         32.5564  -44.6041  -53.0047 C.3       11 UNK         0.0226 
      9 C9         31.0659  -44.4792  -52.7216 C.ar      11 UNK        -0.0699 
     10 C10        30.5702  -44.7413  -51.4411 C.ar      11 UNK        -0.0804 
     11 C11        29.2031  -44.6290  -51.1705 C.ar      11 UNK        -0.0871 
     12 C12        28.3305  -44.2292  -52.1861 C.ar      11 UNK        -0.1008 
     13 C13        28.8117  -43.9758  -53.4736 C.ar      11 UNK        -0.0735 
     14 C14        30.1792  -44.1068  -53.7373 C.ar      11 UNK        -0.0945 
     15 C15        27.8509  -43.5486  -54.5728 C.3       11 UNK         0.0169 
     16 S16        26.8197  -44.9298  -55.1595 S.3       11 UNK        -0.2669 
     17 C17        28.0433  -45.9521  -56.0466 C.3       11 UNK        -0.0850 
     18 CA         28.2194  -45.5111  -57.5233 C.3       10 UNK         0.0855 
     19 C          29.4432  -46.2098  -58.1823 C.2       10 UNK         0.5543 
     20 N          29.2874  -46.9982  -59.2403 N.am      10 UNK        -0.7343 
     21 O          30.5674  -46.0092  -57.7336 O.2       10 UNK        -0.5027 
     22 N          26.9701  -45.6376  -58.2896 N.am      10 UNK        -0.4495 
     23 C          26.6828  -44.9183  -59.3837 C.2       10 UNK         0.4903 
     24 O          27.3921  -43.9990  -59.7968 O.2       10 UNK        -0.4860 
     25 CA         25.3929  -45.2860  -60.1507 C.3       9 UNK         0.0227 
     26 CB         25.4428  -44.8568  -61.6330 C.3       9 UNK        -0.1964 
     27 N          25.0218  -46.7030  -60.0397 N.am      9 UNK        -0.4231 
     28 C          25.7712  -47.7624  -60.3774 C.2       9 UNK         0.5014 
     29 O          26.8989  -47.6933  -60.8716 O.2       9 UNK        -0.5270 
     30 CA         25.1793  -49.1406  -60.0435 C.3       8 UNK         0.0284 
     31 CB         25.0783  -50.0177  -61.3029 C.3       8 UNK        -0.1977 
     32 N          25.9737  -49.8349  -59.0266 N.am      8 UNK        -0.4342 
     33 C          26.2265  -49.3752  -57.7934 C.2       8 UNK         0.5039 
     34 O          25.8297  -48.2862  -57.3684 O.2       8 UNK        -0.5547 
     35 CA         27.0864  -50.2821  -56.8961 C.3       7 UNK         0.0281 
     36 CB         28.5797  -49.9611  -57.0721 C.3       7 UNK        -0.1963 
     37 N          26.7159  -50.1652  -55.4815 N.am      7 UNK        -0.4444 
     38 C          25.5491  -50.6006  -54.9773 C.2       7 UNK         0.5104 
     39 O          24.6956  -51.1756  -55.6556 O.2       7 UNK        -0.5100 
     40 CA         25.2778  -50.4138  -53.4708 C.3       6 UNK         0.0396 
     41 CB         25.1106  -51.7789  -52.7805 C.3       6 UNK        -0.1801 
     42 N          26.3289  -49.6721  -52.7757 N.am      6 UNK        -0.4747 
     43 C          26.3890  -48.3395  -52.6423 C.2       6 UNK         0.5012 
     44 O          25.5162  -47.5741  -53.0498 O.2       6 UNK        -0.5003 
     45 CA         27.6323  -47.7694  -51.9206 C.3       5 UNK         0.0782 
     46 C46        27.2491  -47.3052  -50.4898 C.3       11 UNK        -0.0868 
     47 S47        28.6618  -46.7447  -49.4759 S.3       11 UNK        -0.2515 
     48 C48        28.6740  -44.9498  -49.7816 C.3       11 UNK         0.0199 
     49 N          28.7741  -48.6970  -51.9250 N.am      5 UNK        -0.4607 
     50 C          29.4318  -49.0786  -53.0256 C.2       4 UNK         0.5031 
     51 O          29.1158  -48.7258  -54.1631 O.2       4 UNK        -0.5119 
     52 CA         30.5654  -50.0950  -52.8281 C.3       4 UNK         0.0263 
     53 CB         29.9967  -51.5242  -52.8243 C.3       4 UNK        -0.1967 
     54 N          31.5542  -49.9814  -53.8994 N.am      4 UNK        -0.4237 
     55 C          32.4920  -49.0299  -53.9580 C.2       3 UNK         0.4908 
     56 O          32.7004  -48.2070  -53.0627 O.2       3 UNK        -0.5102 
     57 CA         33.3220  -48.9835  -55.2445 C.3       3 UNK         0.0241 
     58 CB         32.5560  -48.2459  -56.3572 C.3       3 UNK        -0.1971 
     59 N          34.5812  -48.3002  -54.9691 N.am      3 UNK        -0.4139 
     60 C          35.7103  -48.4109  -55.6748 C.2       2 UNK         0.5016 
     61 O          35.8155  -49.1097  -56.6851 O.2       2 UNK        -0.5319 
     62 CA         36.9154  -47.5874  -55.1743 C.3       2 UNK         0.0286 
     63 CB         38.1849  -47.8177  -56.0165 C.3       2 UNK        -0.1963 
     64 N          36.6278  -46.1496  -55.1432 N.am      2 UNK        -0.4790 
     65 C          35.9196  -45.5217  -54.1932 C.2       1 UNK         0.5024 
     66 O          35.4227  -46.1137  -53.2337 O.2       1 UNK        -0.4888 
     67 H67        40.1884  -43.2929  -54.6906 H         1 UNK         0.0892 
     68 H68        39.1369  -42.2122  -55.6071 H         1 UNK         0.0892 
     69 H69        39.6614  -41.7633  -53.9834 H         1 UNK         0.0892 
     70 H70        37.0316  -42.9239  -55.6505 H         1 UNK         0.3107 
     71 H71        35.1191  -43.8608  -55.2246 H         1 UNK         0.0773 
     72 H72        35.5117  -42.3126  -52.9724 H         1 UNK         0.0680 
     73 H73        35.2270  -43.8264  -52.1956 H         1 UNK         0.0680 
     74 H74        33.0719  -45.0389  -52.1468 H         1 UNK         0.0650 
     75 H75        32.7124  -45.2891  -53.8395 H         1 UNK         0.0650 
     76 H76        31.2459  -45.0456  -50.6533 H         1 UNK         0.1397 
     77 H77        27.2718  -44.1361  -51.9847 H         1 UNK         0.1363 
     78 H78        30.5596  -43.9093  -54.7304 H         1 UNK         0.1355 
     79 H79        27.1979  -42.7623  -54.1914 H         1 UNK         0.0707 
     80 H80        28.3902  -43.1125  -55.4150 H         1 UNK         0.0707 
     81 H81        28.9918  -45.9252  -55.5082 H         1 UNK         0.1034 
     82 H82        27.7126  -46.9899  -55.9954 H         1 UNK         0.1034 
     83 H83        28.4823  -44.4519  -57.5027 H         1 UNK         0.0482 
     84 H84        30.1011  -47.4235  -59.6531 H         1 UNK         0.3460 
     85 H85        28.3769  -47.1442  -59.6636 H         1 UNK         0.3460 
     86 H86        26.3630  -46.4045  -58.0168 H         1 UNK         0.2989 
     87 H87        24.5901  -44.7239  -59.6716 H         1 UNK         0.0559 
     88 H88        25.5793  -43.7787  -61.7261 H         1 UNK         0.0848 
     89 H89        24.5179  -45.1090  -62.1516 H         1 UNK         0.0848 
     90 H90        26.2664  -45.3354  -62.1640 H         1 UNK         0.0848 
     91 H91        24.1326  -46.8816  -59.5926 H         1 UNK         0.3144 
     92 H92        24.1726  -49.0090  -59.6412 H         1 UNK         0.0727 
     93 H93        26.0597  -50.2233  -61.7328 H         1 UNK         0.0790 
     94 H94        24.4830  -49.5254  -62.0731 H         1 UNK         0.0790 
     95 H95        24.5990  -50.9727  -61.0861 H         1 UNK         0.0790 
     96 H96        26.3714  -50.7213  -59.3020 H         1 UNK         0.3215 
     97 H97        26.9236  -51.3201  -57.1946 H         1 UNK         0.0863 
     98 H98        29.2017  -50.6093  -56.4549 H         1 UNK         0.0808 
     99 H99        28.8070  -48.9295  -56.8055 H         1 UNK         0.0808 
    100 H100       28.8920  -50.1008  -58.1078 H         1 UNK         0.0808 
    101 H101       27.3570  -49.6554  -54.8845 H         1 UNK         0.3118 
    102 H102       24.3345  -49.8717  -53.3778 H         1 UNK         0.0546 
    103 H103       26.0143  -52.3847  -52.8576 H         1 UNK         0.0828 
    104 H104       24.2973  -52.3498  -53.2308 H         1 UNK         0.0828 
    105 H105       24.8721  -51.6630  -51.7232 H         1 UNK         0.0828 
    106 H106       27.0912  -50.2161  -52.3987 H         1 UNK         0.3005 
    107 H107       27.9376  -46.8948  -52.4976 H         1 UNK         0.1257 
    108 H108       26.7729  -48.1226  -49.9446 H         1 UNK         0.0775 
    109 H109       26.5063  -46.5064  -50.5363 H         1 UNK         0.0775 
    110 H110       27.6730  -44.5410  -49.6352 H         1 UNK         0.0840 
    111 H111       29.3094  -44.4699  -49.0357 H         1 UNK         0.0840 
    112 H112       29.0859  -49.0186  -51.0197 H         1 UNK         0.2987 
    113 H113       31.0535  -49.9036  -51.8696 H         1 UNK         0.0785 
    114 H114       29.2893  -51.6641  -52.0059 H         1 UNK         0.0798 
    115 H115       30.7866  -52.2644  -52.6943 H         1 UNK         0.0798 
    116 H116       29.4714  -51.7542  -53.7527 H         1 UNK         0.0798 
    117 H117       31.4211  -50.5838  -54.6982 H         1 UNK         0.3079 
    118 H118       33.5334  -50.0081  -55.5583 H         1 UNK         0.0794 
    119 H119       33.1140  -48.2402  -57.2935 H         1 UNK         0.0786 
    120 H120       32.3574  -47.2096  -56.0807 H         1 UNK         0.0786 
    121 H121       31.5929  -48.7172  -56.5581 H         1 UNK         0.0786 
    122 H122       34.5746  -47.7124  -54.1378 H         1 UNK         0.3032 
    123 H123       37.1300  -47.9255  -54.1576 H         1 UNK         0.1094 
    124 H124       38.0478  -47.5005  -57.0511 H         1 UNK         0.0794 
    125 H125       39.0363  -47.2730  -55.6078 H         1 UNK         0.0794 
    126 H126       38.4572  -48.8740  -56.0322 H         1 UNK         0.0794 
    127 H127       36.9906  -45.6028  -55.9110 H         1 UNK         0.3016 
@<TRIPOS>BOND
     1    1    2 1    
     2    1   67 1    
     3    1   68 1    
     4    1   69 1    
     5    2    3 2    
     6    2    4 am   BACKBONE|DICT|INTERRES
     7    4    5 1    
     8    4   70 1    
     9    5    6 1    
    10    5   65 1    
    11    5   71 1    
    12    6    7 1    
    13    6   72 1    
    14    6   73 1    
    15    7    8 1    
    16    8    9 1    
    17    8   74 1    
    18    8   75 1    
    19    9   10 ar   
    20    9   14 ar   
    21   10   11 ar   
    22   10   76 1    
    23   11   12 ar   
    24   11   48 1    
    25   12   13 ar   
    26   12   77 1    
    27   13   14 ar   
    28   13   15 1    
    29   14   78 1    
    30   15   16 1    
    31   15   79 1    
    32   15   80 1    
    33   16   17 1    
    34   17   18 1    
    35   17   81 1    
    36   17   82 1    
    37   18   19 1    
    38   18   22 1    
    39   18   83 1    
    40   19   20 am   BACKBONE|DICT|INTERRES
    41   19   21 2    
    42   20   84 1    
    43   20   85 1    
    44   22   23 am   BACKBONE|DICT|INTERRES
    45   22   86 1    
    46   23   24 2    
    47   23   25 1    
    48   25   26 1    
    49   25   27 1    
    50   25   87 1    
    51   26   88 1    
    52   26   89 1    
    53   26   90 1    
    54   27   28 am   BACKBONE|DICT|INTERRES
    55   27   91 1    
    56   28   29 2    
    57   28   30 1    
    58   30   31 1    
    59   30   32 1    
    60   30   92 1    
    61   31   93 1    
    62   31   94 1    
    63   31   95 1    
    64   32   33 am   BACKBONE|DICT|INTERRES
    65   32   96 1    
    66   33   34 2    
    67   33   35 1    
    68   35   36 1    
    69   35   37 1    
    70   35   97 1    
    71   36   98 1    
    72   36   99 1    
    73   36  100 1    
    74   37   38 am   BACKBONE|DICT|INTERRES
    75   37  101 1    
    76   38   39 2    
    77   38   40 1    
    78   40   41 1    
    79   40   42 1    
    80   40  102 1    
    81   41  103 1    
    82   41  104 1    
    83   41  105 1    
    84   42   43 am   BACKBONE|DICT|INTERRES
    85   42  106 1    
    86   43   44 2    
    87   43   45 1    
    88   45   46 1    
    89   45   49 1    
    90   45  107 1    
    91   46   47 1    
    92   46  108 1    
    93   46  109 1    
    94   47   48 1    
    95   48  110 1    
    96   48  111 1    
    97   49   50 am   BACKBONE|DICT|INTERRES
    98   49  112 1    
    99   50   51 2    
   100   50   52 1    
   101   52   53 1    
   102   52   54 1    
   103   52  113 1    
   104   53  114 1    
   105   53  115 1    
   106   53  116 1    
   107   54   55 am   BACKBONE|DICT|INTERRES
   108   54  117 1    
   109   55   56 2    
   110   55   57 1    
   111   57   58 1    
   112   57   59 1    
   113   57  118 1    
   114   58  119 1    
   115   58  120 1    
   116   58  121 1    
   117   59   60 am   BACKBONE|DICT|INTERRES
   118   59  122 1    
   119   60   61 2    
   120   60   62 1    
   121   62   63 1    
   122   62   64 1    
   123   62  123 1    
   124   63  124 1    
   125   63  125 1    
   126   63  126 1    
   127   64   65 am   BACKBONE|DICT|INTERRES
   128   64  127 1    
   129   65   66 2    
@<TRIPOS>SUBSTRUCTURE
     1 UNK         1 GROUP             0       ****    0 ROOT    
