@<TRIPOS>MOLECULE
3R134
127   129    1
SMALL
USER_CHARGES


@<TRIPOS>ATOM
      1 CA         36.9375  -48.0636  -50.8001 C.3       0 UNK        -0.1968 
      2 C          35.7499  -47.9955  -51.7469 C.2       0 UNK         0.4852 
      3 O          35.1436  -49.0273  -52.0478 O.2       0 UNK        -0.5359 
      4 N          35.3886  -46.7886  -52.2102 N.am      1 UNK        -0.4300 
      5 CA         34.2845  -46.5696  -53.1529 C.3       1 UNK         0.0863 
      6 C6         34.2877  -45.1528  -53.7733 C.3       11 UNK        -0.0953 
      7 S7         33.7619  -43.7969  -52.6676 S.3       11 UNK        -0.2369 
      8 C8         33.6964  -42.3847  -53.8226 C.3       11 UNK         0.0226 
      9 C9         32.6942  -42.5901  -54.9536 C.ar      11 UNK        -0.0699 
     10 C10        33.1294  -43.0671  -56.1941 C.ar      11 UNK        -0.0804 
     11 C11        32.2189  -43.2940  -57.2299 C.ar      11 UNK        -0.0871 
     12 C12        30.8686  -42.9923  -57.0361 C.ar      11 UNK        -0.1008 
     13 C13        30.4215  -42.4998  -55.8070 C.ar      11 UNK        -0.0735 
     14 C14        31.3371  -42.3064  -54.7658 C.ar      11 UNK        -0.0945 
     15 C15        28.9494  -42.1721  -55.6163 C.3       11 UNK         0.0169 
     16 S16        27.9616  -43.6702  -55.3132 S.3       11 UNK        -0.2669 
     17 C17        26.2917  -42.9395  -55.1775 C.3       11 UNK        -0.0850 
     18 CA         25.3140  -43.3418  -56.3145 C.3       10 UNK         0.0855 
     19 C          25.7095  -42.7664  -57.7078 C.2       10 UNK         0.5543 
     20 N          25.7022  -43.5491  -58.7806 N.am      10 UNK        -0.7343 
     21 O          26.0090  -41.5803  -57.8207 O.2       10 UNK        -0.5027 
     22 N          25.0367  -44.7869  -56.3007 N.am      10 UNK        -0.4495 
     23 C          23.8668  -45.3437  -56.6359 C.2       10 UNK         0.4903 
     24 O          22.8688  -44.7005  -56.9659 O.2       10 UNK        -0.4860 
     25 CA         23.8219  -46.8816  -56.5970 C.3       9 UNK         0.0227 
     26 CB         22.4568  -47.4619  -57.0253 C.3       9 UNK        -0.1964 
     27 N          24.9154  -47.4954  -57.3601 N.am      9 UNK        -0.4231 
     28 C          25.1541  -47.3893  -58.6786 C.2       9 UNK         0.5014 
     29 O          24.4759  -46.6945  -59.4364 O.2       9 UNK        -0.5270 
     30 CA         26.3545  -48.1603  -59.2705 C.3       8 UNK         0.0284 
     31 CB         27.3359  -47.1888  -59.9498 C.3       8 UNK        -0.1977 
     32 N          27.0844  -48.9670  -58.2880 N.am      8 UNK        -0.4342 
     33 C          26.6666  -50.1397  -57.7841 C.2       8 UNK         0.5039 
     34 O          25.6676  -50.7336  -58.1905 O.2       8 UNK        -0.5547 
     35 CA         27.4569  -50.7332  -56.5967 C.3       7 UNK         0.0281 
     36 CB         28.3868  -51.8567  -57.0802 C.3       7 UNK        -0.1963 
     37 N          28.2417  -49.7428  -55.8497 N.am      7 UNK        -0.4444 
     38 C          27.7323  -48.6570  -55.2458 C.2       7 UNK         0.5104 
     39 O          26.5232  -48.4598  -55.1225 O.2       7 UNK        -0.5100 
     40 CA         28.7085  -47.5598  -54.7801 C.3       6 UNK         0.0396 
     41 CB         28.8032  -47.5359  -53.2503 C.3       6 UNK        -0.1801 
     42 N          30.0563  -47.6359  -55.3566 N.am      6 UNK        -0.4747 
     43 C          30.3485  -47.6097  -56.6657 C.2       6 UNK         0.5012 
     44 O          29.4895  -47.5109  -57.5424 O.2       6 UNK        -0.5003 
     45 CA         31.8259  -47.8043  -57.0782 C.3       5 UNK         0.0782 
     46 C46        32.5441  -46.4482  -57.2813 C.3       11 UNK        -0.0868 
     47 S47        32.0293  -45.5832  -58.8062 S.3       11 UNK        -0.2515 
     48 C48        32.6913  -43.9026  -58.5433 C.3       11 UNK         0.0199 
     49 N          32.6052  -48.6810  -56.1898 N.am      5 UNK        -0.4607 
     50 C          32.2939  -49.9310  -55.8158 C.2       4 UNK         0.5031 
     51 O          31.2256  -50.4788  -56.0886 O.2       4 UNK        -0.5119 
     52 CA         33.3772  -50.7162  -55.0504 C.3       4 UNK         0.0263 
     53 CB         34.8149  -50.2911  -55.4130 C.3       4 UNK        -0.1967 
     54 N          33.2056  -50.6270  -53.6001 N.am      4 UNK        -0.4237 
     55 C          32.3572  -51.3752  -52.8791 C.2       3 UNK         0.4908 
     56 O          31.5979  -52.2166  -53.3598 O.2       3 UNK        -0.5102 
     57 CA         32.3740  -51.1717  -51.3564 C.3       3 UNK         0.0241 
     58 CB         33.5714  -51.9011  -50.7237 C.3       3 UNK        -0.1971 
     59 N          32.4322  -49.7504  -51.0181 N.am      3 UNK        -0.4139 
     60 C          31.3648  -49.0012  -50.7076 C.2       2 UNK         0.5016 
     61 O          30.2301  -49.4547  -50.5560 O.2       2 UNK        -0.5319 
     62 CA         31.5866  -47.4849  -50.5403 C.3       2 UNK         0.0286 
     63 CB         31.7220  -47.1229  -49.0527 C.3       2 UNK        -0.1963 
     64 N          32.7537  -46.9745  -51.2640 N.am      2 UNK        -0.4790 
     65 C          32.9042  -46.9814  -52.5975 C.2       1 UNK         0.5024 
     66 O          32.0346  -47.3566  -53.3802 O.2       1 UNK        -0.4888 
     67 H67        37.7154  -48.6986  -51.2230 H         1 UNK         0.0892 
     68 H68        36.6310  -48.4900  -49.8454 H         1 UNK         0.0892 
     69 H69        37.3663  -47.0796  -50.6121 H         1 UNK         0.0892 
     70 H70        35.8985  -45.9637  -51.9256 H         1 UNK         0.3107 
     71 H71        34.4728  -47.2545  -53.9811 H         1 UNK         0.0773 
     72 H72        33.6198  -45.1648  -54.6313 H         1 UNK         0.0680 
     73 H73        35.2765  -44.9171  -54.1697 H         1 UNK         0.0680 
     74 H74        33.4342  -41.4862  -53.2621 H         1 UNK         0.0650 
     75 H75        34.6947  -42.2087  -54.2263 H         1 UNK         0.0650 
     76 H76        34.1763  -43.2965  -56.3395 H         1 UNK         0.1397 
     77 H77        30.1596  -43.1659  -57.8346 H         1 UNK         0.1363 
     78 H78        30.9951  -41.9369  -53.8086 H         1 UNK         0.1355 
     79 H79        28.8204  -41.4796  -54.7830 H         1 UNK         0.0707 
     80 H80        28.5719  -41.6623  -56.5042 H         1 UNK         0.0707 
     81 H81        26.3646  -41.8522  -55.1147 H         1 UNK         0.1034 
     82 H82        25.8735  -43.2485  -54.2183 H         1 UNK         0.1034 
     83 H83        24.3760  -42.8356  -56.0783 H         1 UNK         0.0482 
     84 H84        25.4021  -44.5098  -58.7138 H         1 UNK         0.3460 
     85 H85        25.9519  -43.1593  -59.6754 H         1 UNK         0.3460 
     86 H86        25.8175  -45.3822  -56.0652 H         1 UNK         0.2989 
     87 H87        23.9826  -47.1649  -55.5557 H         1 UNK         0.0559 
     88 H88        21.6566  -47.0891  -56.3847 H         1 UNK         0.0848 
     89 H89        22.4484  -48.5495  -56.9533 H         1 UNK         0.0848 
     90 H90        22.2024  -47.1919  -58.0507 H         1 UNK         0.0848 
     91 H91        25.5568  -48.0492  -56.8001 H         1 UNK         0.3144 
     92 H92        25.9589  -48.8308  -60.0362 H         1 UNK         0.0727 
     93 H93        28.1936  -47.7154  -60.3688 H         1 UNK         0.0790 
     94 H94        27.7114  -46.4402  -59.2506 H         1 UNK         0.0790 
     95 H95        26.8543  -46.6534  -60.7691 H         1 UNK         0.0790 
     96 H96        27.9349  -48.5472  -57.9166 H         1 UNK         0.3215 
     97 H97        26.7288  -51.1623  -55.9053 H         1 UNK         0.0863 
     98 H98        28.9007  -52.3339  -56.2454 H         1 UNK         0.0808 
     99 H99        29.1454  -51.4820  -57.7688 H         1 UNK         0.0808 
    100 H100       27.8253  -52.6327  -57.6022 H         1 UNK         0.0808 
    101 H101       29.2522  -49.8371  -55.8987 H         1 UNK         0.3118 
    102 H102       28.2808  -46.6101  -55.1035 H         1 UNK         0.0546 
    103 H103       27.8147  -47.4757  -52.7927 H         1 UNK         0.0828 
    104 H104       29.3697  -46.6705  -52.9076 H         1 UNK         0.0828 
    105 H105       29.2873  -48.4352  -52.8704 H         1 UNK         0.0828 
    106 H106       30.8270  -47.6927  -54.6922 H         1 UNK         0.3005 
    107 H107       31.8023  -48.3194  -58.0412 H         1 UNK         0.1257 
    108 H108       33.6239  -46.5909  -57.3473 H         1 UNK         0.0775 
    109 H109       32.3725  -45.8120  -56.4137 H         1 UNK         0.0775 
    110 H110       33.7810  -43.9423  -58.5846 H         1 UNK         0.0840 
    111 H111       32.3771  -43.2638  -59.3698 H         1 UNK         0.0840 
    112 H112       33.5058  -48.3263  -55.9103 H         1 UNK         0.2987 
    113 H113       33.2693  -51.7613  -55.3491 H         1 UNK         0.0785 
    114 H114       35.0644  -49.2974  -55.0423 H         1 UNK         0.0798 
    115 H115       34.9677  -50.2941  -56.4934 H         1 UNK         0.0798 
    116 H116       35.5410  -50.9847  -54.9883 H         1 UNK         0.0798 
    117 H117       33.8257  -49.9908  -53.1071 H         1 UNK         0.3079 
    118 H118       31.4626  -51.6164  -50.9506 H         1 UNK         0.0794 
    119 H119       34.5245  -51.5138  -51.0857 H         1 UNK         0.0786 
    120 H120       33.5438  -52.9669  -50.9541 H         1 UNK         0.0786 
    121 H121       33.5629  -51.8043  -49.6379 H         1 UNK         0.0786 
    122 H122       33.3289  -49.2938  -51.1451 H         1 UNK         0.3032 
    123 H123       30.7022  -46.9821  -50.9357 H         1 UNK         0.1094 
    124 H124       32.6031  -47.5826  -48.6031 H         1 UNK         0.0794 
    125 H125       31.7948  -46.0443  -48.9112 H         1 UNK         0.0794 
    126 H126       30.8529  -47.4634  -48.4879 H         1 UNK         0.0794 
    127 H127       33.5246  -46.6382  -50.7052 H         1 UNK         0.3016 
@<TRIPOS>BOND
     1    1    2 1    
     2    1   67 1    
     3    1   68 1    
     4    1   69 1    
     5    2    3 2    
     6    2    4 am   BACKBONE|DICT|INTERRES
     7    4    5 1    
     8    4   70 1    
     9    5    6 1    
    10    5   65 1    
    11    5   71 1    
    12    6    7 1    
    13    6   72 1    
    14    6   73 1    
    15    7    8 1    
    16    8    9 1    
    17    8   74 1    
    18    8   75 1    
    19    9   10 ar   
    20    9   14 ar   
    21   10   11 ar   
    22   10   76 1    
    23   11   12 ar   
    24   11   48 1    
    25   12   13 ar   
    26   12   77 1    
    27   13   14 ar   
    28   13   15 1    
    29   14   78 1    
    30   15   16 1    
    31   15   79 1    
    32   15   80 1    
    33   16   17 1    
    34   17   18 1    
    35   17   81 1    
    36   17   82 1    
    37   18   19 1    
    38   18   22 1    
    39   18   83 1    
    40   19   20 am   BACKBONE|DICT|INTERRES
    41   19   21 2    
    42   20   84 1    
    43   20   85 1    
    44   22   23 am   BACKBONE|DICT|INTERRES
    45   22   86 1    
    46   23   24 2    
    47   23   25 1    
    48   25   26 1    
    49   25   27 1    
    50   25   87 1    
    51   26   88 1    
    52   26   89 1    
    53   26   90 1    
    54   27   28 am   BACKBONE|DICT|INTERRES
    55   27   91 1    
    56   28   29 2    
    57   28   30 1    
    58   30   31 1    
    59   30   32 1    
    60   30   92 1    
    61   31   93 1    
    62   31   94 1    
    63   31   95 1    
    64   32   33 am   BACKBONE|DICT|INTERRES
    65   32   96 1    
    66   33   34 2    
    67   33   35 1    
    68   35   36 1    
    69   35   37 1    
    70   35   97 1    
    71   36   98 1    
    72   36   99 1    
    73   36  100 1    
    74   37   38 am   BACKBONE|DICT|INTERRES
    75   37  101 1    
    76   38   39 2    
    77   38   40 1    
    78   40   41 1    
    79   40   42 1    
    80   40  102 1    
    81   41  103 1    
    82   41  104 1    
    83   41  105 1    
    84   42   43 am   BACKBONE|DICT|INTERRES
    85   42  106 1    
    86   43   44 2    
    87   43   45 1    
    88   45   46 1    
    89   45   49 1    
    90   45  107 1    
    91   46   47 1    
    92   46  108 1    
    93   46  109 1    
    94   47   48 1    
    95   48  110 1    
    96   48  111 1    
    97   49   50 am   BACKBONE|DICT|INTERRES
    98   49  112 1    
    99   50   51 2    
   100   50   52 1    
   101   52   53 1    
   102   52   54 1    
   103   52  113 1    
   104   53  114 1    
   105   53  115 1    
   106   53  116 1    
   107   54   55 am   BACKBONE|DICT|INTERRES
   108   54  117 1    
   109   55   56 2    
   110   55   57 1    
   111   57   58 1    
   112   57   59 1    
   113   57  118 1    
   114   58  119 1    
   115   58  120 1    
   116   58  121 1    
   117   59   60 am   BACKBONE|DICT|INTERRES
   118   59  122 1    
   119   60   61 2    
   120   60   62 1    
   121   62   63 1    
   122   62   64 1    
   123   62  123 1    
   124   63  124 1    
   125   63  125 1    
   126   63  126 1    
   127   64   65 am   BACKBONE|DICT|INTERRES
   128   64  127 1    
   129   65   66 2    
@<TRIPOS>SUBSTRUCTURE
     1 UNK         1 GROUP             0       ****    0 ROOT    
