@<TRIPOS>MOLECULE
3R134
127   129    1
SMALL
USER_CHARGES


@<TRIPOS>ATOM
      1 CA         35.4662  -44.2823  -49.1784 C.3       0 UNK        -0.1968 
      2 C          35.0903  -45.0399  -50.4441 C.2       0 UNK         0.4852 
      3 O          34.1238  -45.8026  -50.4256 O.2       0 UNK        -0.5359 
      4 N          35.8458  -44.8204  -51.5309 N.am      1 UNK        -0.4300 
      5 CA         35.7247  -45.4590  -52.8492 C.3       1 UNK         0.0863 
      6 C6         34.3030  -45.3202  -53.4660 C.3       11 UNK        -0.0953 
      7 S7         34.3047  -45.3369  -55.2909 S.3       11 UNK        -0.2369 
      8 C8         32.6243  -45.9347  -55.6516 C.3       11 UNK         0.0226 
      9 C9         31.5792  -44.8528  -55.4223 C.ar      11 UNK        -0.0699 
     10 C10        30.9781  -44.7016  -54.1695 C.ar      11 UNK        -0.0804 
     11 C11        30.0311  -43.6935  -53.9511 C.ar      11 UNK        -0.0871 
     12 C12        29.6998  -42.8306  -55.0005 C.ar      11 UNK        -0.1008 
     13 C13        30.2911  -42.9711  -56.2617 C.ar      11 UNK        -0.0735 
     14 C14        31.2256  -43.9907  -56.4641 C.ar      11 UNK        -0.0945 
     15 C15        30.0075  -41.9817  -57.3903 C.3       11 UNK         0.0169 
     16 S16        28.2743  -41.4205  -57.4908 S.3       11 UNK        -0.2669 
     17 C17        27.4370  -42.8556  -58.2496 C.3       11 UNK        -0.0850 
     18 CA         26.4895  -43.6214  -57.2766 C.3       10 UNK         0.0855 
     19 C          25.1305  -42.9106  -56.9791 C.2       10 UNK         0.5543 
     20 N          25.0933  -41.5860  -56.9569 N.am      10 UNK        -0.7343 
     21 O          24.1115  -43.5488  -56.7187 O.2       10 UNK        -0.5027 
     22 N          26.3129  -45.0223  -57.6848 N.am      10 UNK        -0.4495 
     23 C          25.7553  -45.4497  -58.8264 C.2       10 UNK         0.4903 
     24 O          25.3722  -44.7036  -59.7297 O.2       10 UNK        -0.4860 
     25 CA         25.6093  -46.9765  -58.9736 C.3       9 UNK         0.0227 
     26 CB         25.1975  -47.4195  -60.3938 C.3       9 UNK        -0.1964 
     27 N          26.8036  -47.6958  -58.5194 N.am      9 UNK        -0.4231 
     28 C          28.0479  -47.6299  -59.0178 C.2       9 UNK         0.5014 
     29 O          28.3621  -46.9717  -60.0103 O.2       9 UNK        -0.5270 
     30 CA         29.1427  -48.4195  -58.2730 C.3       8 UNK         0.0284 
     31 CB         30.0337  -47.4598  -57.4702 C.3       8 UNK        -0.1977 
     32 N          28.6183  -49.4398  -57.3621 N.am      8 UNK        -0.4342 
     33 C          28.0240  -50.5806  -57.7368 C.2       8 UNK         0.5039 
     34 O          27.9163  -50.9501  -58.9063 O.2       8 UNK        -0.5547 
     35 CA         27.4084  -51.4273  -56.6123 C.3       7 UNK         0.0281 
     36 CB         28.4749  -52.3115  -55.9443 C.3       7 UNK        -0.1963 
     37 N          26.7487  -50.5904  -55.6047 N.am      7 UNK        -0.4444 
     38 C          25.5672  -49.9807  -55.7820 C.2       7 UNK         0.5104 
     39 O          24.8872  -50.0901  -56.8016 O.2       7 UNK        -0.5100 
     40 CA         25.0661  -49.0769  -54.6412 C.3       6 UNK         0.0396 
     41 CB         24.2620  -49.8967  -53.6201 C.3       6 UNK        -0.1801 
     42 N          26.1481  -48.3678  -53.9542 N.am      6 UNK        -0.4747 
     43 C          26.8650  -47.3694  -54.4915 C.2       6 UNK         0.5012 
     44 O          26.6607  -46.9088  -55.6135 O.2       6 UNK        -0.5003 
     45 CA         28.0416  -46.8298  -53.6555 C.3       5 UNK         0.0782 
     46 C46        27.5855  -45.6448  -52.7696 C.3       11 UNK        -0.0868 
     47 S47        28.9273  -45.0030  -51.7111 S.3       11 UNK        -0.2515 
     48 C48        29.4075  -43.4707  -52.5751 C.3       11 UNK         0.0199 
     49 N          28.7200  -47.8816  -52.8856 N.am      5 UNK        -0.4607 
     50 C          29.3365  -48.9383  -53.4248 C.2       4 UNK         0.5031 
     51 O          29.3069  -49.2064  -54.6279 O.2       4 UNK        -0.5119 
     52 CA         30.0698  -49.8803  -52.4583 C.3       4 UNK         0.0263 
     53 CB         29.1529  -51.0447  -52.0501 C.3       4 UNK        -0.1967 
     54 N          31.2847  -50.4132  -53.0774 N.am      4 UNK        -0.4237 
     55 C          32.3552  -49.6681  -53.3790 C.2       3 UNK         0.4908 
     56 O          32.4872  -48.4878  -53.0457 O.2       3 UNK        -0.5102 
     57 CA         33.4436  -50.3482  -54.2161 C.3       3 UNK         0.0241 
     58 CB         32.9613  -50.5875  -55.6601 C.3       3 UNK        -0.1971 
     59 N          34.6215  -49.4873  -54.2381 N.am      3 UNK        -0.4139 
     60 C          35.8943  -49.8921  -54.2883 C.2       2 UNK         0.5016 
     61 O          36.2310  -51.0762  -54.3380 O.2       2 UNK        -0.5319 
     62 CA         36.9840  -48.8027  -54.3062 C.3       2 UNK         0.0286 
     63 CB         37.7215  -48.8036  -55.6565 C.3       2 UNK        -0.1963 
     64 N          36.4657  -47.4522  -54.0602 N.am      2 UNK        -0.4790 
     65 C          36.2516  -46.9152  -52.8524 C.2       1 UNK         0.5024 
     66 O          36.4859  -47.5141  -51.8000 O.2       1 UNK        -0.4888 
     67 H67        36.3262  -43.6303  -49.3309 H         1 UNK         0.0892 
     68 H68        34.6299  -43.6672  -48.8471 H         1 UNK         0.0892 
     69 H69        35.7103  -44.9837  -48.3810 H         1 UNK         0.0892 
     70 H70        36.6337  -44.1934  -51.4444 H         1 UNK         0.3107 
     71 H71        36.4146  -44.8916  -53.4763 H         1 UNK         0.0773 
     72 H72        33.6373  -46.0952  -53.0839 H         1 UNK         0.0680 
     73 H73        33.8569  -44.3706  -53.1662 H         1 UNK         0.0680 
     74 H74        32.3991  -46.8178  -55.0542 H         1 UNK         0.0650 
     75 H75        32.5975  -46.2591  -56.6923 H         1 UNK         0.0650 
     76 H76        31.2601  -45.3620  -53.3606 H         1 UNK         0.1397 
     77 H77        28.9974  -42.0271  -54.8269 H         1 UNK         0.1363 
     78 H78        31.7049  -44.0972  -57.4277 H         1 UNK         0.1355 
     79 H79        30.6385  -41.1061  -57.2332 H         1 UNK         0.0707 
     80 H80        30.3016  -42.3980  -58.3552 H         1 UNK         0.0707 
     81 H81        26.8905  -42.5181  -59.1321 H         1 UNK         0.1034 
     82 H82        28.2023  -43.5359  -58.6270 H         1 UNK         0.1034 
     83 H83        26.9912  -43.6899  -56.3106 H         1 UNK         0.0482 
     84 H84        25.9336  -41.0561  -57.1396 H         1 UNK         0.3460 
     85 H85        24.2274  -41.1141  -56.7490 H         1 UNK         0.3460 
     86 H86        26.5293  -45.7164  -56.9719 H         1 UNK         0.2989 
     87 H87        24.8077  -47.2701  -58.2941 H         1 UNK         0.0559 
     88 H88        24.2387  -46.9828  -60.6755 H         1 UNK         0.0848 
     89 H89        25.0903  -48.5025  -60.4552 H         1 UNK         0.0848 
     90 H90        25.9265  -47.1108  -61.1435 H         1 UNK         0.0848 
     91 H91        26.6832  -48.2318  -57.6710 H         1 UNK         0.3144 
     92 H92        29.7590  -48.9183  -59.0236 H         1 UNK         0.0727 
     93 H93        29.4626  -46.9110  -56.7205 H         1 UNK         0.0790 
     94 H94        30.5039  -46.7238  -58.1237 H         1 UNK         0.0790 
     95 H95        30.8297  -47.9984  -56.9562 H         1 UNK         0.0790 
     96 H96        28.7393  -49.2665  -56.3647 H         1 UNK         0.3215 
     97 H97        26.6579  -52.0827  -57.0602 H         1 UNK         0.0863 
     98 H98        28.0398  -52.9397  -55.1670 H         1 UNK         0.0808 
     99 H99        29.2731  -51.7215  -55.4936 H         1 UNK         0.0808 
    100 H100       28.9383  -52.9761  -56.6747 H         1 UNK         0.0808 
    101 H101       27.2720  -50.3918  -54.7642 H         1 UNK         0.3118 
    102 H102       24.3977  -48.3318  -55.0787 H         1 UNK         0.0546 
    103 H103       24.8776  -50.6514  -53.1291 H         1 UNK         0.0828 
    104 H104       23.4340  -50.4169  -54.1039 H         1 UNK         0.0828 
    105 H105       23.8328  -49.2580  -52.8479 H         1 UNK         0.0828 
    106 H106       26.3861  -48.6804  -53.0237 H         1 UNK         0.3005 
    107 H107       28.7712  -46.4474  -54.3721 H         1 UNK         0.1257 
    108 H108       26.7671  -45.9492  -52.1142 H         1 UNK         0.0775 
    109 H109       27.1936  -44.8340  -53.3874 H         1 UNK         0.0775 
    110 H110       28.5312  -42.8244  -52.6468 H         1 UNK         0.0840 
    111 H111       30.1296  -42.9376  -51.9555 H         1 UNK         0.0840 
    112 H112       28.7920  -47.7202  -51.8911 H         1 UNK         0.2987 
    113 H113       30.3552  -49.3225  -51.5636 H         1 UNK         0.0785 
    114 H114       28.2475  -50.6789  -51.5640 H         1 UNK         0.0798 
    115 H115       29.6495  -51.7104  -51.3438 H         1 UNK         0.0798 
    116 H116       28.8438  -51.6400  -52.9099 H         1 UNK         0.0798 
    117 H117       31.2425  -51.3646  -53.4113 H         1 UNK         0.3079 
    118 H118       33.6897  -51.3015  -53.7432 H         1 UNK         0.0794 
    119 H119       33.7347  -51.0655  -56.2616 H         1 UNK         0.0786 
    120 H120       32.6866  -49.6528  -56.1509 H         1 UNK         0.0786 
    121 H121       32.0858  -51.2375  -55.6861 H         1 UNK         0.0786 
    122 H122       34.4236  -48.5035  -54.1072 H         1 UNK         0.3032 
    123 H123       37.7037  -49.0575  -53.5245 H         1 UNK         0.1094 
    124 H124       37.0507  -48.5666  -56.4834 H         1 UNK         0.0794 
    125 H125       38.5357  -48.0787  -55.6648 H         1 UNK         0.0794 
    126 H126       38.1601  -49.7810  -55.8630 H         1 UNK         0.0794 
    127 H127       36.2322  -46.9006  -54.8759 H         1 UNK         0.3016 
@<TRIPOS>BOND
     1    1    2 1    
     2    1   67 1    
     3    1   68 1    
     4    1   69 1    
     5    2    3 2    
     6    2    4 am   BACKBONE|DICT|INTERRES
     7    4    5 1    
     8    4   70 1    
     9    5    6 1    
    10    5   65 1    
    11    5   71 1    
    12    6    7 1    
    13    6   72 1    
    14    6   73 1    
    15    7    8 1    
    16    8    9 1    
    17    8   74 1    
    18    8   75 1    
    19    9   10 ar   
    20    9   14 ar   
    21   10   11 ar   
    22   10   76 1    
    23   11   12 ar   
    24   11   48 1    
    25   12   13 ar   
    26   12   77 1    
    27   13   14 ar   
    28   13   15 1    
    29   14   78 1    
    30   15   16 1    
    31   15   79 1    
    32   15   80 1    
    33   16   17 1    
    34   17   18 1    
    35   17   81 1    
    36   17   82 1    
    37   18   19 1    
    38   18   22 1    
    39   18   83 1    
    40   19   20 am   BACKBONE|DICT|INTERRES
    41   19   21 2    
    42   20   84 1    
    43   20   85 1    
    44   22   23 am   BACKBONE|DICT|INTERRES
    45   22   86 1    
    46   23   24 2    
    47   23   25 1    
    48   25   26 1    
    49   25   27 1    
    50   25   87 1    
    51   26   88 1    
    52   26   89 1    
    53   26   90 1    
    54   27   28 am   BACKBONE|DICT|INTERRES
    55   27   91 1    
    56   28   29 2    
    57   28   30 1    
    58   30   31 1    
    59   30   32 1    
    60   30   92 1    
    61   31   93 1    
    62   31   94 1    
    63   31   95 1    
    64   32   33 am   BACKBONE|DICT|INTERRES
    65   32   96 1    
    66   33   34 2    
    67   33   35 1    
    68   35   36 1    
    69   35   37 1    
    70   35   97 1    
    71   36   98 1    
    72   36   99 1    
    73   36  100 1    
    74   37   38 am   BACKBONE|DICT|INTERRES
    75   37  101 1    
    76   38   39 2    
    77   38   40 1    
    78   40   41 1    
    79   40   42 1    
    80   40  102 1    
    81   41  103 1    
    82   41  104 1    
    83   41  105 1    
    84   42   43 am   BACKBONE|DICT|INTERRES
    85   42  106 1    
    86   43   44 2    
    87   43   45 1    
    88   45   46 1    
    89   45   49 1    
    90   45  107 1    
    91   46   47 1    
    92   46  108 1    
    93   46  109 1    
    94   47   48 1    
    95   48  110 1    
    96   48  111 1    
    97   49   50 am   BACKBONE|DICT|INTERRES
    98   49  112 1    
    99   50   51 2    
   100   50   52 1    
   101   52   53 1    
   102   52   54 1    
   103   52  113 1    
   104   53  114 1    
   105   53  115 1    
   106   53  116 1    
   107   54   55 am   BACKBONE|DICT|INTERRES
   108   54  117 1    
   109   55   56 2    
   110   55   57 1    
   111   57   58 1    
   112   57   59 1    
   113   57  118 1    
   114   58  119 1    
   115   58  120 1    
   116   58  121 1    
   117   59   60 am   BACKBONE|DICT|INTERRES
   118   59  122 1    
   119   60   61 2    
   120   60   62 1    
   121   62   63 1    
   122   62   64 1    
   123   62  123 1    
   124   63  124 1    
   125   63  125 1    
   126   63  126 1    
   127   64   65 am   BACKBONE|DICT|INTERRES
   128   64  127 1    
   129   65   66 2    
@<TRIPOS>SUBSTRUCTURE
     1 UNK         1 GROUP             0       ****    0 ROOT    
