@<TRIPOS>MOLECULE
3R134
127   129    1
SMALL
USER_CHARGES


@<TRIPOS>ATOM
      1 CA         33.0080  -46.1010  -51.4272 C.3       0 UNK        -0.1968 
      2 C          34.0334  -45.5597  -52.4128 C.2       0 UNK         0.4852 
      3 O          34.6302  -44.5106  -52.1661 O.2       0 UNK        -0.5359 
      4 N          34.2360  -46.2687  -53.5257 N.am      1 UNK        -0.4300 
      5 CA         35.1248  -45.8915  -54.6262 C.3       1 UNK         0.0863 
      6 C6         34.5442  -44.7911  -55.5640 C.3       11 UNK        -0.0953 
      7 S7         32.7551  -44.9496  -55.9214 S.3       11 UNK        -0.2369 
      8 C8         32.0984  -43.4439  -55.1331 C.3       11 UNK         0.0226 
      9 C9         30.7101  -43.6607  -54.5505 C.ar      11 UNK        -0.0699 
     10 C10        30.5248  -43.6641  -53.1646 C.ar      11 UNK        -0.0804 
     11 C11        29.2490  -43.8289  -52.6183 C.ar      11 UNK        -0.0871 
     12 C12        28.1516  -43.9860  -53.4701 C.ar      11 UNK        -0.1008 
     13 C13        28.3267  -44.0070  -54.8561 C.ar      11 UNK        -0.0735 
     14 C14        29.6078  -43.8386  -55.3914 C.ar      11 UNK        -0.0945 
     15 C15        27.1362  -44.2660  -55.7657 C.3       11 UNK         0.0169 
     16 S16        26.2013  -42.7536  -56.1587 S.3       11 UNK        -0.2669 
     17 C17        27.2659  -41.9313  -57.3957 C.3       11 UNK        -0.0850 
     18 CA         26.7617  -42.1179  -58.8613 C.3       10 UNK         0.0855 
     19 C          27.4973  -41.2105  -59.8984 C.2       10 UNK         0.5543 
     20 N          27.8205  -39.9718  -59.5494 N.am      10 UNK        -0.7343 
     21 O          27.7324  -41.5938  -61.0435 O.2       10 UNK        -0.5027 
     22 N          26.6995  -43.5336  -59.2727 N.am      10 UNK        -0.4495 
     23 C          27.7426  -44.3636  -59.4001 C.2       10 UNK         0.4903 
     24 O          28.9111  -44.0593  -59.1479 O.2       10 UNK        -0.4860 
     25 CA         27.4280  -45.7799  -59.9027 C.3       9 UNK         0.0227 
     26 CB         27.7006  -45.8866  -61.4120 C.3       9 UNK        -0.1964 
     27 N          28.2634  -46.7473  -59.1910 N.am      9 UNK        -0.4231 
     28 C          27.9202  -47.3475  -58.0452 C.2       9 UNK         0.5014 
     29 O          26.8102  -47.2420  -57.5174 O.2       9 UNK        -0.5270 
     30 CA         29.0321  -48.1545  -57.3512 C.3       8 UNK         0.0284 
     31 CB         29.8585  -47.2326  -56.4396 C.3       8 UNK        -0.1977 
     32 N          28.5152  -49.2582  -56.5433 N.am      8 UNK        -0.4342 
     33 C          27.8605  -50.3303  -57.0066 C.2       8 UNK         0.5039 
     34 O          27.6466  -50.5419  -58.2015 O.2       8 UNK        -0.5547 
     35 CA         27.3773  -51.3532  -55.9668 C.3       7 UNK         0.0281 
     36 CB         28.4918  -52.3670  -55.6561 C.3       7 UNK        -0.1963 
     37 N          26.9555  -50.7130  -54.7180 N.am      7 UNK        -0.4444 
     38 C          25.6833  -50.5092  -54.3508 C.2       7 UNK         0.5104 
     39 O          24.7137  -50.8237  -55.0423 O.2       7 UNK        -0.5100 
     40 CA         25.4320  -49.8823  -52.9645 C.3       6 UNK         0.0396 
     41 CB         25.0357  -50.9719  -51.9548 C.3       6 UNK        -0.1801 
     42 N          26.5823  -49.1446  -52.4360 N.am      6 UNK        -0.4747 
     43 C          26.9260  -47.9033  -52.8088 C.2       6 UNK         0.5012 
     44 O          26.2668  -47.2227  -53.5937 O.2       6 UNK        -0.5003 
     45 CA         28.2303  -47.3229  -52.2165 C.3       5 UNK         0.0782 
     46 C46        27.9040  -46.4188  -51.0021 C.3       11 UNK        -0.0868 
     47 S47        29.3605  -45.4953  -50.4067 S.3       11 UNK        -0.2515 
     48 C48        29.0614  -43.8407  -51.1084 C.3       11 UNK         0.0199 
     49 N          29.2494  -48.3315  -51.8841 N.am      5 UNK        -0.4607 
     50 C          29.7675  -49.2201  -52.7393 C.2       4 UNK         0.5031 
     51 O          29.3607  -49.3718  -53.8921 O.2       4 UNK        -0.5119 
     52 CA         30.8733  -50.1395  -52.1994 C.3       4 UNK         0.0263 
     53 CB         30.2537  -51.3109  -51.4195 C.3       4 UNK        -0.1967 
     54 N          31.6908  -50.6764  -53.2893 N.am      4 UNK        -0.4237 
     55 C          32.5486  -49.9521  -54.0173 C.2       3 UNK         0.4908 
     56 O          32.8294  -48.7718  -53.7819 O.2       3 UNK        -0.5102 
     57 CA         33.1737  -50.6621  -55.2297 C.3       3 UNK         0.0241 
     58 CB         32.2853  -50.4875  -56.4727 C.3       3 UNK        -0.1971 
     59 N          34.4880  -50.0929  -55.5063 N.am      3 UNK        -0.4139 
     60 C          35.6028  -50.3797  -54.8267 C.2       2 UNK         0.5016 
     61 O          35.7184  -51.3437  -54.0686 O.2       2 UNK        -0.5319 
     62 CA         36.7625  -49.3777  -54.9613 C.3       2 UNK         0.0286 
     63 CB         37.4685  -49.4880  -56.3280 C.3       2 UNK        -0.1963 
     64 N          36.3479  -47.9990  -54.6479 N.am      2 UNK        -0.4790 
     65 C          35.5362  -47.1857  -55.3433 C.2       1 UNK         0.5024 
     66 O          35.0697  -47.4647  -56.4493 O.2       1 UNK        -0.4888 
     67 H67        32.2906  -46.7596  -51.9175 H         1 UNK         0.0892 
     68 H68        33.5043  -46.6599  -50.6347 H         1 UNK         0.0892 
     69 H69        32.4512  -45.2831  -50.9713 H         1 UNK         0.0892 
     70 H70        33.7195  -47.1375  -53.6693 H         1 UNK         0.3107 
     71 H71        36.0453  -45.4898  -54.1965 H         1 UNK         0.0773 
     72 H72        34.7348  -43.8164  -55.1147 H         1 UNK         0.0680 
     73 H73        35.0827  -44.7649  -56.5130 H         1 UNK         0.0680 
     74 H74        32.0662  -42.6410  -55.8707 H         1 UNK         0.0650 
     75 H75        32.7736  -43.1090  -54.3447 H         1 UNK         0.0650 
     76 H76        31.3744  -43.5363  -52.5078 H         1 UNK         0.1397 
     77 H77        27.1607  -44.1181  -53.0578 H         1 UNK         0.1363 
     78 H78        29.7545  -43.8624  -56.4627 H         1 UNK         0.1355 
     79 H79        27.4668  -44.7473  -56.6823 H         1 UNK         0.0707 
     80 H80        26.4618  -44.9780  -55.2872 H         1 UNK         0.0707 
     81 H81        27.2744  -40.8759  -57.1225 H         1 UNK         0.1034 
     82 H82        28.2981  -42.2635  -57.2960 H         1 UNK         0.1034 
     83 H83        25.7269  -41.7748  -58.8931 H         1 UNK         0.0482 
     84 H84        27.6072  -39.6079  -58.6346 H         1 UNK         0.3460 
     85 H85        28.2764  -39.3803  -60.2268 H         1 UNK         0.3460 
     86 H86        25.7815  -43.8680  -59.5274 H         1 UNK         0.2989 
     87 H87        26.3730  -46.0017  -59.7268 H         1 UNK         0.0559 
     88 H88        27.0789  -45.1854  -61.9706 H         1 UNK         0.0848 
     89 H89        27.4778  -46.8860  -61.7862 H         1 UNK         0.0848 
     90 H90        28.7403  -45.6611  -61.6536 H         1 UNK         0.0848 
     91 H91        29.2167  -46.8305  -59.5148 H         1 UNK         0.3144 
     92 H92        29.6880  -48.5796  -58.1136 H         1 UNK         0.0727 
     93 H93        29.2463  -46.8032  -55.6454 H         1 UNK         0.0790 
     94 H94        30.2879  -46.4043  -57.0042 H         1 UNK         0.0790 
     95 H95        30.6841  -47.7637  -55.9658 H         1 UNK         0.0790 
     96 H96        28.6963  -49.2001  -55.5433 H         1 UNK         0.3215 
     97 H97        26.5418  -51.9000  -56.4095 H         1 UNK         0.0863 
     98 H98        28.1336  -53.1555  -54.9942 H         1 UNK         0.0808 
     99 H99        29.3485  -51.8930  -55.1766 H         1 UNK         0.0808 
    100 H100       28.8499  -52.8471  -56.5678 H         1 UNK         0.0808 
    101 H101       27.6960  -50.3519  -54.1260 H         1 UNK         0.3118 
    102 H102       24.5902  -49.1936  -53.0639 H         1 UNK         0.0546 
    103 H103       25.8367  -51.6971  -51.8060 H         1 UNK         0.0828 
    104 H104       24.1589  -51.5224  -52.2988 H         1 UNK         0.0828 
    105 H105       24.7849  -50.5427  -50.9846 H         1 UNK         0.0828 
    106 H106       27.1743  -49.6277  -51.7756 H         1 UNK         0.3005 
    107 H107       28.6627  -46.7010  -53.0031 H         1 UNK         0.1257 
    108 H108       27.5239  -47.0202  -50.1741 H         1 UNK         0.0775 
    109 H109       27.1088  -45.7104  -51.2412 H         1 UNK         0.0775 
    110 H110       28.0607  -43.4988  -50.8397 H         1 UNK         0.0840 
    111 H111       29.7538  -43.1342  -50.6480 H         1 UNK         0.0840 
    112 H112       29.6248  -48.2760  -50.9482 H         1 UNK         0.2987 
    113 H113       31.5169  -49.5622  -51.5320 H         1 UNK         0.0785 
    114 H114       29.6678  -50.9543  -50.5713 H         1 UNK         0.0798 
    115 H115       31.0232  -51.9723  -51.0209 H         1 UNK         0.0798 
    116 H116       29.5898  -51.9086  -52.0461 H         1 UNK         0.0798 
    117 H117       31.4983  -51.6268  -53.5686 H         1 UNK         0.3079 
    118 H118       33.2778  -51.7270  -55.0106 H         1 UNK         0.0794 
    119 H119       31.2750  -50.8564  -56.2938 H         1 UNK         0.0786 
    120 H120       32.6856  -51.0377  -57.3243 H         1 UNK         0.0786 
    121 H121       32.2020  -49.4397  -56.7633 H         1 UNK         0.0786 
    122 H122       34.4996  -49.2303  -56.0439 H         1 UNK         0.3032 
    123 H123       37.4956  -49.6474  -54.1986 H         1 UNK         0.1094 
    124 H124       38.3059  -48.7938  -56.3977 H         1 UNK         0.0794 
    125 H125       37.8678  -50.4924  -56.4746 H         1 UNK         0.0794 
    126 H126       36.7962  -49.2868  -57.1621 H         1 UNK         0.0794 
    127 H127       36.6315  -47.6785  -53.7312 H         1 UNK         0.3016 
@<TRIPOS>BOND
     1    1    2 1    
     2    1   67 1    
     3    1   68 1    
     4    1   69 1    
     5    2    3 2    
     6    2    4 am   BACKBONE|DICT|INTERRES
     7    4    5 1    
     8    4   70 1    
     9    5    6 1    
    10    5   65 1    
    11    5   71 1    
    12    6    7 1    
    13    6   72 1    
    14    6   73 1    
    15    7    8 1    
    16    8    9 1    
    17    8   74 1    
    18    8   75 1    
    19    9   10 ar   
    20    9   14 ar   
    21   10   11 ar   
    22   10   76 1    
    23   11   12 ar   
    24   11   48 1    
    25   12   13 ar   
    26   12   77 1    
    27   13   14 ar   
    28   13   15 1    
    29   14   78 1    
    30   15   16 1    
    31   15   79 1    
    32   15   80 1    
    33   16   17 1    
    34   17   18 1    
    35   17   81 1    
    36   17   82 1    
    37   18   19 1    
    38   18   22 1    
    39   18   83 1    
    40   19   20 am   BACKBONE|DICT|INTERRES
    41   19   21 2    
    42   20   84 1    
    43   20   85 1    
    44   22   23 am   BACKBONE|DICT|INTERRES
    45   22   86 1    
    46   23   24 2    
    47   23   25 1    
    48   25   26 1    
    49   25   27 1    
    50   25   87 1    
    51   26   88 1    
    52   26   89 1    
    53   26   90 1    
    54   27   28 am   BACKBONE|DICT|INTERRES
    55   27   91 1    
    56   28   29 2    
    57   28   30 1    
    58   30   31 1    
    59   30   32 1    
    60   30   92 1    
    61   31   93 1    
    62   31   94 1    
    63   31   95 1    
    64   32   33 am   BACKBONE|DICT|INTERRES
    65   32   96 1    
    66   33   34 2    
    67   33   35 1    
    68   35   36 1    
    69   35   37 1    
    70   35   97 1    
    71   36   98 1    
    72   36   99 1    
    73   36  100 1    
    74   37   38 am   BACKBONE|DICT|INTERRES
    75   37  101 1    
    76   38   39 2    
    77   38   40 1    
    78   40   41 1    
    79   40   42 1    
    80   40  102 1    
    81   41  103 1    
    82   41  104 1    
    83   41  105 1    
    84   42   43 am   BACKBONE|DICT|INTERRES
    85   42  106 1    
    86   43   44 2    
    87   43   45 1    
    88   45   46 1    
    89   45   49 1    
    90   45  107 1    
    91   46   47 1    
    92   46  108 1    
    93   46  109 1    
    94   47   48 1    
    95   48  110 1    
    96   48  111 1    
    97   49   50 am   BACKBONE|DICT|INTERRES
    98   49  112 1    
    99   50   51 2    
   100   50   52 1    
   101   52   53 1    
   102   52   54 1    
   103   52  113 1    
   104   53  114 1    
   105   53  115 1    
   106   53  116 1    
   107   54   55 am   BACKBONE|DICT|INTERRES
   108   54  117 1    
   109   55   56 2    
   110   55   57 1    
   111   57   58 1    
   112   57   59 1    
   113   57  118 1    
   114   58  119 1    
   115   58  120 1    
   116   58  121 1    
   117   59   60 am   BACKBONE|DICT|INTERRES
   118   59  122 1    
   119   60   61 2    
   120   60   62 1    
   121   62   63 1    
   122   62   64 1    
   123   62  123 1    
   124   63  124 1    
   125   63  125 1    
   126   63  126 1    
   127   64   65 am   BACKBONE|DICT|INTERRES
   128   64  127 1    
   129   65   66 2    
@<TRIPOS>SUBSTRUCTURE
     1 UNK         1 GROUP             0       ****    0 ROOT    
