@<TRIPOS>MOLECULE
3R134
127   129    1
SMALL
USER_CHARGES


@<TRIPOS>ATOM
      1 CA         37.2438  -45.0530  -48.8499 C.3       0 UNK        -0.1968 
      2 C          37.1434  -45.2525  -50.3554 C.2       0 UNK         0.4852 
      3 O          38.1589  -45.1796  -51.0500 O.2       0 UNK        -0.5359 
      4 N          35.9280  -45.4952  -50.8637 N.am      1 UNK        -0.4300 
      5 CA         35.6540  -45.7817  -52.2749 C.3       1 UNK         0.0863 
      6 C6         34.1598  -45.5415  -52.6105 C.3       11 UNK        -0.0953 
      7 S7         33.8973  -45.1982  -54.3859 S.3       11 UNK        -0.2369 
      8 C8         33.3736  -43.4542  -54.3659 C.3       11 UNK         0.0226 
      9 C9         31.8568  -43.3202  -54.3544 C.ar      11 UNK        -0.0699 
     10 C10        31.1323  -43.4977  -53.1716 C.ar      11 UNK        -0.0804 
     11 C11        29.7397  -43.3633  -53.1627 C.ar      11 UNK        -0.0871 
     12 C12        29.0704  -43.0460  -54.3488 C.ar      11 UNK        -0.1008 
     13 C13        29.7862  -42.8477  -55.5338 C.ar      11 UNK        -0.0735 
     14 C14        31.1767  -42.9920  -55.5309 C.ar      11 UNK        -0.0945 
     15 C15        29.0674  -42.4448  -56.8121 C.3       11 UNK         0.0169 
     16 S16        29.0235  -43.8133  -58.0043 S.3       11 UNK        -0.2669 
     17 C17        28.0069  -43.0815  -59.3331 C.3       11 UNK        -0.0850 
     18 CA         26.4992  -43.4037  -59.1726 C.3       10 UNK         0.0855 
     19 C          25.6695  -42.7516  -60.3110 C.2       10 UNK         0.5543 
     20 N          25.2096  -41.5235  -60.1160 N.am      10 UNK        -0.7343 
     21 O          25.4790  -43.3276  -61.3807 O.2       10 UNK        -0.5027 
     22 N          26.2782  -44.8496  -59.0647 N.am      10 UNK        -0.4495 
     23 C          25.1510  -45.4481  -58.6738 C.2       10 UNK         0.4903 
     24 O          24.1247  -44.8406  -58.3666 O.2       10 UNK        -0.4860 
     25 CA         25.1694  -46.9835  -58.5642 C.3       9 UNK         0.0227 
     26 CB         24.6284  -47.6428  -59.8473 C.3       9 UNK        -0.1964 
     27 N          26.4614  -47.5599  -58.1603 N.am      9 UNK        -0.4231 
     28 C          27.6147  -47.6460  -58.8419 C.2       9 UNK         0.5014 
     29 O          27.7895  -47.1646  -59.9617 O.2       9 UNK        -0.5270 
     30 CA         28.7773  -48.3884  -58.1558 C.3       8 UNK         0.0284 
     31 CB         29.6729  -47.4053  -57.3851 C.3       8 UNK        -0.1977 
     32 N          28.3256  -49.4399  -57.2429 N.am      8 UNK        -0.4342 
     33 C          27.7003  -50.5670  -57.6114 C.2       8 UNK         0.5039 
     34 O          27.5031  -50.8962  -58.7815 O.2       8 UNK        -0.5547 
     35 CA         27.1813  -51.4620  -56.4763 C.3       7 UNK         0.0281 
     36 CB         28.3048  -52.3538  -55.9211 C.3       7 UNK        -0.1963 
     37 N          26.5945  -50.6632  -55.3969 N.am      7 UNK        -0.4444 
     38 C          25.3641  -50.1315  -55.4353 C.2       7 UNK         0.5104 
     39 O          24.5689  -50.3128  -56.3572 O.2       7 UNK        -0.5100 
     40 CA         24.9432  -49.2411  -54.2515 C.3       6 UNK         0.0396 
     41 CB         24.2110  -50.0759  -53.1891 C.3       6 UNK        -0.1801 
     42 N          26.0631  -48.5348  -53.6238 N.am      6 UNK        -0.4747 
     43 C          26.7351  -47.5170  -54.1832 C.2       6 UNK         0.5012 
     44 O          26.4683  -47.0513  -55.2900 O.2       6 UNK        -0.5003 
     45 CA         27.9406  -46.9688  -53.3899 C.3       5 UNK         0.0782 
     46 C46        27.4776  -45.8793  -52.3903 C.3       11 UNK        -0.0868 
     47 S47        28.8296  -45.2496  -51.3347 S.3       11 UNK        -0.2515 
     48 C48        28.9704  -43.5126  -51.8581 C.3       11 UNK         0.0199 
     49 N          28.7157  -48.0329  -52.7346 N.am      5 UNK        -0.4607 
     50 C          29.2979  -49.0590  -53.3646 C.2       4 UNK         0.5031 
     51 O          29.1528  -49.2975  -54.5650 O.2       4 UNK        -0.5119 
     52 CA         30.1490  -50.0084  -52.5081 C.3       4 UNK         0.0263 
     53 CB         29.3159  -51.2242  -52.0711 C.3       4 UNK        -0.1967 
     54 N          31.3258  -50.4660  -53.2507 N.am      4 UNK        -0.4237 
     55 C          32.3283  -49.6610  -53.6246 C.2       3 UNK         0.4908 
     56 O          32.4180  -48.4775  -53.2902 O.2       3 UNK        -0.5102 
     57 CA         33.3947  -50.2712  -54.5396 C.3       3 UNK         0.0241 
     58 CB         32.8707  -50.4105  -55.9809 C.3       3 UNK        -0.1971 
     59 N          34.5624  -49.3956  -54.5284 N.am      3 UNK        -0.4139 
     60 C          35.8391  -49.7856  -54.5905 C.2       2 UNK         0.5016 
     61 O          36.1882  -50.9582  -54.7362 O.2       2 UNK        -0.5319 
     62 CA         36.9199  -48.6920  -54.4788 C.3       2 UNK         0.0286 
     63 CB         37.5561  -48.4265  -55.8535 C.3       2 UNK        -0.1963 
     64 N          36.4411  -47.4187  -53.9261 N.am      2 UNK        -0.4790 
     65 C          36.1097  -47.2123  -52.6442 C.2       1 UNK         0.5024 
     66 O          36.1404  -48.0958  -51.7835 O.2       1 UNK        -0.4888 
     67 H67        37.8985  -45.8077  -48.4148 H         1 UNK         0.0892 
     68 H68        36.2718  -45.1261  -48.3625 H         1 UNK         0.0892 
     69 H69        37.6607  -44.0709  -48.6283 H         1 UNK         0.0892 
     70 H70        35.1398  -45.5819  -50.2384 H         1 UNK         0.3107 
     71 H71        36.2528  -45.0790  -52.8596 H         1 UNK         0.0773 
     72 H72        33.5411  -46.3864  -52.3068 H         1 UNK         0.0680 
     73 H73        33.7851  -44.6937  -52.0366 H         1 UNK         0.0680 
     74 H74        33.8070  -42.9303  -53.5130 H         1 UNK         0.0650 
     75 H75        33.7840  -42.9669  -55.2517 H         1 UNK         0.0650 
     76 H76        31.6500  -43.7387  -52.2540 H         1 UNK         0.1397 
     77 H77        27.9950  -42.9311  -54.3457 H         1 UNK         0.1363 
     78 H78        31.7284  -42.8430  -56.4492 H         1 UNK         0.1355 
     79 H79        29.5734  -41.5883  -57.2600 H         1 UNK         0.0707 
     80 H80        28.0473  -42.1250  -56.5936 H         1 UNK         0.0707 
     81 H81        28.3756  -43.4647  -60.2868 H         1 UNK         0.1034 
     82 H82        28.1715  -42.0025  -59.3603 H         1 UNK         0.1034 
     83 H83        26.1651  -42.9668  -58.2292 H         1 UNK         0.0482 
     84 H84        24.6824  -41.0759  -60.8496 H         1 UNK         0.3460 
     85 H85        25.3668  -41.0382  -59.2463 H         1 UNK         0.3460 
     86 H86        27.0474  -45.4446  -59.3525 H         1 UNK         0.2989 
     87 H87        24.4840  -47.2402  -57.7546 H         1 UNK         0.0559 
     88 H88        25.2432  -47.4096  -60.7171 H         1 UNK         0.0848 
     89 H89        23.6177  -47.2953  -60.0651 H         1 UNK         0.0848 
     90 H90        24.5847  -48.7274  -59.7467 H         1 UNK         0.0848 
     91 H91        26.4904  -47.8597  -57.1917 H         1 UNK         0.3144 
     92 H92        29.3773  -48.8601  -58.9367 H         1 UNK         0.0727 
     93 H93        30.5007  -47.9180  -56.8947 H         1 UNK         0.0790 
     94 H94        29.1145  -46.8647  -56.6197 H         1 UNK         0.0790 
     95 H95        30.1045  -46.6644  -58.0588 H         1 UNK         0.0790 
     96 H96        28.5199  -49.2995  -56.2517 H         1 UNK         0.3215 
     97 H97        26.4083  -52.1139  -56.8898 H         1 UNK         0.0863 
     98 H98        27.9382  -53.0071  -55.1293 H         1 UNK         0.0808 
     99 H99        29.1330  -51.7695  -55.5197 H         1 UNK         0.0808 
    100 H100       28.7123  -52.9936  -56.7050 H         1 UNK         0.0808 
    101 H101       27.2084  -50.4054  -54.6365 H         1 UNK         0.3118 
    102 H102       24.2450  -48.4937  -54.6350 H         1 UNK         0.0546 
    103 H103       23.3538  -50.5930  -53.6227 H         1 UNK         0.0828 
    104 H104       23.8328  -49.4486  -52.3818 H         1 UNK         0.0828 
    105 H105       24.8605  -50.8345  -52.7507 H         1 UNK         0.0828 
    106 H106       26.3563  -48.8574  -52.7125 H         1 UNK         0.3005 
    107 H107       28.6074  -46.4953  -54.1148 H         1 UNK         0.1257 
    108 H108       26.7056  -46.2725  -51.7258 H         1 UNK         0.0775 
    109 H109       27.0166  -45.0479  -52.9270 H         1 UNK         0.0775 
    110 H110       27.9778  -43.0655  -51.9315 H         1 UNK         0.0840 
    111 H111       29.4897  -42.9568  -51.0758 H         1 UNK         0.0840 
    112 H112       28.8887  -47.8987  -51.7486 H         1 UNK         0.2987 
    113 H113       30.4912  -49.4755  -51.6181 H         1 UNK         0.0785 
    114 H114       28.9553  -51.7984  -52.9252 H         1 UNK         0.0798 
    115 H115       28.4431  -50.9143  -51.4949 H         1 UNK         0.0798 
    116 H116       29.8967  -51.8953  -51.4379 H         1 UNK         0.0798 
    117 H117       31.3074  -51.4161  -53.5906 H         1 UNK         0.3079 
    118 H118       33.6621  -51.2538  -54.1449 H         1 UNK         0.0794 
    119 H119       32.5843  -49.4443  -56.3984 H         1 UNK         0.0786 
    120 H120       31.9925  -51.0560  -56.0233 H         1 UNK         0.0786 
    121 H121       33.6252  -50.8471  -56.6356 H         1 UNK         0.0786 
    122 H122       34.3533  -48.4243  -54.3320 H         1 UNK         0.3032 
    123 H123       37.6944  -49.0796  -53.8128 H         1 UNK         0.1094 
    124 H124       38.3833  -47.7202  -55.7794 H         1 UNK         0.0794 
    125 H125       37.9567  -49.3459  -56.2833 H         1 UNK         0.0794 
    126 H126       36.8314  -48.0247  -56.5628 H         1 UNK         0.0794 
    127 H127       36.3577  -46.6479  -54.5749 H         1 UNK         0.3016 
@<TRIPOS>BOND
     1    1    2 1    
     2    1   67 1    
     3    1   68 1    
     4    1   69 1    
     5    2    3 2    
     6    2    4 am   BACKBONE|DICT|INTERRES
     7    4    5 1    
     8    4   70 1    
     9    5    6 1    
    10    5   65 1    
    11    5   71 1    
    12    6    7 1    
    13    6   72 1    
    14    6   73 1    
    15    7    8 1    
    16    8    9 1    
    17    8   74 1    
    18    8   75 1    
    19    9   10 ar   
    20    9   14 ar   
    21   10   11 ar   
    22   10   76 1    
    23   11   12 ar   
    24   11   48 1    
    25   12   13 ar   
    26   12   77 1    
    27   13   14 ar   
    28   13   15 1    
    29   14   78 1    
    30   15   16 1    
    31   15   79 1    
    32   15   80 1    
    33   16   17 1    
    34   17   18 1    
    35   17   81 1    
    36   17   82 1    
    37   18   19 1    
    38   18   22 1    
    39   18   83 1    
    40   19   20 am   BACKBONE|DICT|INTERRES
    41   19   21 2    
    42   20   84 1    
    43   20   85 1    
    44   22   23 am   BACKBONE|DICT|INTERRES
    45   22   86 1    
    46   23   24 2    
    47   23   25 1    
    48   25   26 1    
    49   25   27 1    
    50   25   87 1    
    51   26   88 1    
    52   26   89 1    
    53   26   90 1    
    54   27   28 am   BACKBONE|DICT|INTERRES
    55   27   91 1    
    56   28   29 2    
    57   28   30 1    
    58   30   31 1    
    59   30   32 1    
    60   30   92 1    
    61   31   93 1    
    62   31   94 1    
    63   31   95 1    
    64   32   33 am   BACKBONE|DICT|INTERRES
    65   32   96 1    
    66   33   34 2    
    67   33   35 1    
    68   35   36 1    
    69   35   37 1    
    70   35   97 1    
    71   36   98 1    
    72   36   99 1    
    73   36  100 1    
    74   37   38 am   BACKBONE|DICT|INTERRES
    75   37  101 1    
    76   38   39 2    
    77   38   40 1    
    78   40   41 1    
    79   40   42 1    
    80   40  102 1    
    81   41  103 1    
    82   41  104 1    
    83   41  105 1    
    84   42   43 am   BACKBONE|DICT|INTERRES
    85   42  106 1    
    86   43   44 2    
    87   43   45 1    
    88   45   46 1    
    89   45   49 1    
    90   45  107 1    
    91   46   47 1    
    92   46  108 1    
    93   46  109 1    
    94   47   48 1    
    95   48  110 1    
    96   48  111 1    
    97   49   50 am   BACKBONE|DICT|INTERRES
    98   49  112 1    
    99   50   51 2    
   100   50   52 1    
   101   52   53 1    
   102   52   54 1    
   103   52  113 1    
   104   53  114 1    
   105   53  115 1    
   106   53  116 1    
   107   54   55 am   BACKBONE|DICT|INTERRES
   108   54  117 1    
   109   55   56 2    
   110   55   57 1    
   111   57   58 1    
   112   57   59 1    
   113   57  118 1    
   114   58  119 1    
   115   58  120 1    
   116   58  121 1    
   117   59   60 am   BACKBONE|DICT|INTERRES
   118   59  122 1    
   119   60   61 2    
   120   60   62 1    
   121   62   63 1    
   122   62   64 1    
   123   62  123 1    
   124   63  124 1    
   125   63  125 1    
   126   63  126 1    
   127   64   65 am   BACKBONE|DICT|INTERRES
   128   64  127 1    
   129   65   66 2    
@<TRIPOS>SUBSTRUCTURE
     1 UNK         1 GROUP             0       ****    0 ROOT    
