@<TRIPOS>MOLECULE
3R134
127   129    1
SMALL
USER_CHARGES


@<TRIPOS>ATOM
      1 CA         37.4032  -44.9941  -54.3904 C.3       0 UNK        -0.1968 
      2 C          36.4025  -44.8875  -53.2489 C.2       0 UNK         0.4852 
      3 O          36.7903  -45.0259  -52.0881 O.2       0 UNK        -0.5359 
      4 N          35.1243  -44.6476  -53.5789 N.am      1 UNK        -0.4300 
      5 CA         33.9899  -44.4980  -52.6512 C.3       1 UNK         0.0863 
      6 C6         34.0868  -43.2428  -51.7383 C.3       11 UNK        -0.0953 
      7 S7         34.3341  -41.7035  -52.6893 S.3       11 UNK        -0.2369 
      8 C8         32.6484  -41.0177  -52.7500 C.3       11 UNK         0.0226 
      9 C9         31.6783  -41.9249  -53.4949 C.ar      11 UNK        -0.0699 
     10 C10        30.6463  -42.5682  -52.8036 C.ar      11 UNK        -0.0804 
     11 C11        29.7422  -43.3879  -53.4845 C.ar      11 UNK        -0.0871 
     12 C12        29.8670  -43.5482  -54.8652 C.ar      11 UNK        -0.1008 
     13 C13        30.9145  -42.9427  -55.5652 C.ar      11 UNK        -0.0735 
     14 C14        31.8100  -42.1195  -54.8748 C.ar      11 UNK        -0.0945 
     15 C15        31.0634  -43.1608  -57.0665 C.3       11 UNK         0.0169 
     16 S16        30.8686  -44.9178  -57.5292 S.3       11 UNK        -0.2669 
     17 C17        29.9414  -44.7861  -59.0954 C.3       11 UNK        -0.0850 
     18 CA         28.4474  -44.3920  -58.9177 C.3       10 UNK         0.0855 
     19 C          27.7372  -44.2675  -60.2998 C.2       10 UNK         0.5543 
     20 N          26.6481  -44.9780  -60.5707 N.am      10 UNK        -0.7343 
     21 O          28.1854  -43.4993  -61.1472 O.2       10 UNK        -0.5027 
     22 N          27.7508  -45.2496  -57.9448 N.am      10 UNK        -0.4495 
     23 C          26.6290  -44.9080  -57.2951 C.2       10 UNK         0.4903 
     24 O          26.1169  -43.7893  -57.3546 O.2       10 UNK        -0.4860 
     25 CA         25.9647  -46.0161  -56.4533 C.3       9 UNK         0.0227 
     26 CB         24.4867  -45.7225  -56.1213 C.3       9 UNK        -0.1964 
     27 N          26.1154  -47.3480  -57.0553 N.am      9 UNK        -0.4231 
     28 C          25.6971  -47.7365  -58.2699 C.2       9 UNK         0.5014 
     29 O          25.0321  -47.0236  -59.0227 O.2       9 UNK        -0.5270 
     30 CA         26.1397  -49.1192  -58.7717 C.3       8 UNK         0.0284 
     31 CB         27.2299  -48.9595  -59.8472 C.3       8 UNK        -0.1977 
     32 N          26.6605  -49.9851  -57.7077 N.am      8 UNK        -0.4342 
     33 C          26.1726  -51.1960  -57.4101 C.2       8 UNK         0.5039 
     34 O          25.1665  -51.6796  -57.9315 O.2       8 UNK        -0.5547 
     35 CA         26.9518  -52.0364  -56.3860 C.3       7 UNK         0.0281 
     36 CB         28.1452  -52.7339  -57.0594 C.3       7 UNK        -0.1963 
     37 N          27.4223  -51.2855  -55.2208 N.am      7 UNK        -0.4444 
     38 C          26.6297  -50.8605  -54.2269 C.2       7 UNK         0.5104 
     39 O          25.4018  -50.9478  -54.2407 O.2       7 UNK        -0.5100 
     40 CA         27.3283  -50.2644  -52.9949 C.3       6 UNK         0.0396 
     41 CB         27.9379  -51.3753  -52.1236 C.3       6 UNK        -0.1801 
     42 N          28.3717  -49.3137  -53.3771 N.am      6 UNK        -0.4747 
     43 C          28.1506  -48.0084  -53.5881 C.2       6 UNK         0.5012 
     44 O          27.0533  -47.4736  -53.4320 O.2       6 UNK        -0.5003 
     45 CA         29.3377  -47.1603  -54.1016 C.3       5 UNK         0.0782 
     46 C46        30.1702  -46.5260  -52.9567 C.3       11 UNK        -0.0868 
     47 S47        29.2630  -45.5029  -51.7415 S.3       11 UNK        -0.2515 
     48 C48        28.6334  -44.1099  -52.7350 C.3       11 UNK         0.0199 
     49 N          30.2152  -47.9137  -55.0035 N.am      5 UNK        -0.4607 
     50 C          29.8508  -48.4681  -56.1672 C.2       4 UNK         0.5031 
     51 O          28.7314  -48.3493  -56.6611 O.2       4 UNK        -0.5119 
     52 CA         30.8859  -49.3654  -56.8646 C.3       4 UNK         0.0263 
     53 CB         31.7156  -48.5499  -57.8664 C.3       4 UNK        -0.1967 
     54 N          31.7803  -50.0467  -55.9231 N.am      4 UNK        -0.4237 
     55 C          31.3972  -50.9143  -54.9764 C.2       3 UNK         0.4908 
     56 O          30.2310  -51.2737  -54.8147 O.2       3 UNK        -0.5102 
     57 CA         32.4778  -51.4072  -53.9995 C.3       3 UNK         0.0241 
     58 CB         33.7058  -51.9956  -54.7261 C.3       3 UNK        -0.1971 
     59 N          32.8616  -50.3830  -53.0154 N.am      3 UNK        -0.4139 
     60 C          33.4402  -49.1965  -53.2502 C.2       2 UNK         0.5016 
     61 O          33.7730  -48.7960  -54.3706 O.2       2 UNK        -0.5319 
     62 CA         33.6815  -48.2949  -52.0337 C.3       2 UNK         0.0286 
     63 CB         34.9099  -48.7586  -51.2302 C.3       2 UNK        -0.1963 
     64 N          33.8989  -46.9410  -52.5298 N.am      2 UNK        -0.4790 
     65 C          33.7011  -45.7982  -51.8640 C.2       1 UNK         0.5024 
     66 O          33.3063  -45.7535  -50.6977 O.2       1 UNK        -0.4888 
     67 H67        36.9321  -44.8506  -55.3627 H         1 UNK         0.0892 
     68 H68        37.8755  -45.9761  -54.3843 H         1 UNK         0.0892 
     69 H69        38.1818  -44.2402  -54.2772 H         1 UNK         0.0892 
     70 H70        34.8890  -44.5378  -54.5554 H         1 UNK         0.3107 
     71 H71        33.1140  -44.3638  -53.2870 H         1 UNK         0.0773 
     72 H72        33.1874  -43.1381  -51.1291 H         1 UNK         0.0680 
     73 H73        34.9155  -43.3437  -51.0358 H         1 UNK         0.0680 
     74 H74        32.3037  -40.8269  -51.7325 H         1 UNK         0.0650 
     75 H75        32.6822  -40.0477  -53.2478 H         1 UNK         0.0650 
     76 H76        30.5472  -42.4381  -51.7345 H         1 UNK         0.1397 
     77 H77        29.1580  -44.1629  -55.4008 H         1 UNK         0.1363 
     78 H78        32.6148  -41.6306  -55.4068 H         1 UNK         0.1355 
     79 H79        32.0404  -42.8206  -57.4130 H         1 UNK         0.0707 
     80 H80        30.3244  -42.5423  -57.5747 H         1 UNK         0.0707 
     81 H81        30.0157  -45.7475  -59.6066 H         1 UNK         0.1034 
     82 H82        30.4555  -44.0669  -59.7363 H         1 UNK         0.1034 
     83 H83        28.4299  -43.3811  -58.5087 H         1 UNK         0.0482 
     84 H84        26.2100  -44.8720  -61.4717 H         1 UNK         0.3460 
     85 H85        26.2335  -45.5976  -59.8847 H         1 UNK         0.3460 
     86 H86        28.1150  -46.1850  -57.8306 H         1 UNK         0.2989 
     87 H87        26.5128  -46.0371  -55.5130 H         1 UNK         0.0559 
     88 H88        23.8801  -45.6223  -57.0218 H         1 UNK         0.0848 
     89 H89        24.3892  -44.7931  -55.5591 H         1 UNK         0.0848 
     90 H90        24.0543  -46.5150  -55.5107 H         1 UNK         0.0848 
     91 H91        26.7431  -47.9719  -56.5630 H         1 UNK         0.3144 
     92 H92        25.2638  -49.5709  -59.2418 H         1 UNK         0.0727 
     93 H93        27.5085  -49.9235  -60.2729 H         1 UNK         0.0790 
     94 H94        28.1326  -48.4988  -59.4434 H         1 UNK         0.0790 
     95 H95        26.8832  -48.3320  -60.6697 H         1 UNK         0.0790 
     96 H96        27.4934  -49.6531  -57.2286 H         1 UNK         0.3215 
     97 H97        26.2756  -52.8152  -56.0257 H         1 UNK         0.0863 
     98 H98        28.6564  -53.4024  -56.3663 H         1 UNK         0.0808 
     99 H99        28.8770  -52.0173  -57.4317 H         1 UNK         0.0808 
    100 H100       27.8176  -53.3361  -57.9080 H         1 UNK         0.0808 
    101 H101       28.4312  -51.2125  -55.1016 H         1 UNK         0.3118 
    102 H102       26.5721  -49.7551  -52.3933 H         1 UNK         0.0546 
    103 H103       27.1736  -52.0891  -51.8135 H         1 UNK         0.0828 
    104 H104       28.3839  -50.9662  -51.2170 H         1 UNK         0.0828 
    105 H105       28.7097  -51.9356  -52.6523 H         1 UNK         0.0828 
    106 H106       29.2800  -49.7015  -53.5955 H         1 UNK         0.3005 
    107 H107       28.9037  -46.3557  -54.6954 H         1 UNK         0.1257 
    108 H108       30.9668  -45.9132  -53.3805 H         1 UNK         0.0775 
    109 H109       30.6755  -47.3111  -52.3924 H         1 UNK         0.0775 
    110 H110       27.8692  -44.4758  -53.4226 H         1 UNK         0.0840 
    111 H111       28.1281  -43.4057  -52.0724 H         1 UNK         0.0840 
    112 H112       31.1671  -48.0522  -54.6985 H         1 UNK         0.2987 
    113 H113       30.3379  -50.1299  -57.4174 H         1 UNK         0.0785 
    114 H114       31.0710  -48.0435  -58.5864 H         1 UNK         0.0798 
    115 H115       32.3935  -49.1883  -58.4329 H         1 UNK         0.0798 
    116 H116       32.3122  -47.7843  -57.3683 H         1 UNK         0.0798 
    117 H117       32.7420  -49.7250  -55.8873 H         1 UNK         0.3079 
    118 H118       32.0255  -52.2197  -53.4279 H         1 UNK         0.0794 
    119 H119       34.2591  -51.2464  -55.2926 H         1 UNK         0.0786 
    120 H120       33.4056  -52.7754  -55.4274 H         1 UNK         0.0786 
    121 H121       34.3985  -52.4496  -54.0176 H         1 UNK         0.0786 
    122 H122       32.6235  -50.6076  -52.0587 H         1 UNK         0.3032 
    123 H123       32.7928  -48.3117  -51.3987 H         1 UNK         0.1094 
    124 H124       35.0876  -48.1133  -50.3697 H         1 UNK         0.0794 
    125 H125       34.7753  -49.7721  -50.8505 H         1 UNK         0.0794 
    126 H126       35.8138  -48.7544  -51.8410 H         1 UNK         0.0794 
    127 H127       34.1881  -46.9105  -53.5008 H         1 UNK         0.3016 
@<TRIPOS>BOND
     1    1    2 1    
     2    1   67 1    
     3    1   68 1    
     4    1   69 1    
     5    2    3 2    
     6    2    4 am   BACKBONE|DICT|INTERRES
     7    4    5 1    
     8    4   70 1    
     9    5    6 1    
    10    5   65 1    
    11    5   71 1    
    12    6    7 1    
    13    6   72 1    
    14    6   73 1    
    15    7    8 1    
    16    8    9 1    
    17    8   74 1    
    18    8   75 1    
    19    9   10 ar   
    20    9   14 ar   
    21   10   11 ar   
    22   10   76 1    
    23   11   12 ar   
    24   11   48 1    
    25   12   13 ar   
    26   12   77 1    
    27   13   14 ar   
    28   13   15 1    
    29   14   78 1    
    30   15   16 1    
    31   15   79 1    
    32   15   80 1    
    33   16   17 1    
    34   17   18 1    
    35   17   81 1    
    36   17   82 1    
    37   18   19 1    
    38   18   22 1    
    39   18   83 1    
    40   19   20 am   BACKBONE|DICT|INTERRES
    41   19   21 2    
    42   20   84 1    
    43   20   85 1    
    44   22   23 am   BACKBONE|DICT|INTERRES
    45   22   86 1    
    46   23   24 2    
    47   23   25 1    
    48   25   26 1    
    49   25   27 1    
    50   25   87 1    
    51   26   88 1    
    52   26   89 1    
    53   26   90 1    
    54   27   28 am   BACKBONE|DICT|INTERRES
    55   27   91 1    
    56   28   29 2    
    57   28   30 1    
    58   30   31 1    
    59   30   32 1    
    60   30   92 1    
    61   31   93 1    
    62   31   94 1    
    63   31   95 1    
    64   32   33 am   BACKBONE|DICT|INTERRES
    65   32   96 1    
    66   33   34 2    
    67   33   35 1    
    68   35   36 1    
    69   35   37 1    
    70   35   97 1    
    71   36   98 1    
    72   36   99 1    
    73   36  100 1    
    74   37   38 am   BACKBONE|DICT|INTERRES
    75   37  101 1    
    76   38   39 2    
    77   38   40 1    
    78   40   41 1    
    79   40   42 1    
    80   40  102 1    
    81   41  103 1    
    82   41  104 1    
    83   41  105 1    
    84   42   43 am   BACKBONE|DICT|INTERRES
    85   42  106 1    
    86   43   44 2    
    87   43   45 1    
    88   45   46 1    
    89   45   49 1    
    90   45  107 1    
    91   46   47 1    
    92   46  108 1    
    93   46  109 1    
    94   47   48 1    
    95   48  110 1    
    96   48  111 1    
    97   49   50 am   BACKBONE|DICT|INTERRES
    98   49  112 1    
    99   50   51 2    
   100   50   52 1    
   101   52   53 1    
   102   52   54 1    
   103   52  113 1    
   104   53  114 1    
   105   53  115 1    
   106   53  116 1    
   107   54   55 am   BACKBONE|DICT|INTERRES
   108   54  117 1    
   109   55   56 2    
   110   55   57 1    
   111   57   58 1    
   112   57   59 1    
   113   57  118 1    
   114   58  119 1    
   115   58  120 1    
   116   58  121 1    
   117   59   60 am   BACKBONE|DICT|INTERRES
   118   59  122 1    
   119   60   61 2    
   120   60   62 1    
   121   62   63 1    
   122   62   64 1    
   123   62  123 1    
   124   63  124 1    
   125   63  125 1    
   126   63  126 1    
   127   64   65 am   BACKBONE|DICT|INTERRES
   128   64  127 1    
   129   65   66 2    
@<TRIPOS>SUBSTRUCTURE
     1 UNK         1 GROUP             0       ****    0 ROOT    
