@<TRIPOS>MOLECULE
3R134
127   129    1
SMALL
USER_CHARGES


@<TRIPOS>ATOM
      1 CA         39.0533  -43.3723  -55.3171 C.3       0 UNK        -0.1968 
      2 C          37.6783  -43.9904  -55.5255 C.2       0 UNK         0.4852 
      3 O          37.2957  -44.2586  -56.6657 O.2       0 UNK        -0.5359 
      4 N          36.9312  -44.2105  -54.4357 N.am      1 UNK        -0.4300 
      5 CA         35.6169  -44.8574  -54.4401 C.3       1 UNK         0.0863 
      6 C6         34.8692  -44.6004  -53.1069 C.3       11 UNK        -0.0953 
      7 S7         33.0879  -44.9856  -53.2081 S.3       11 UNK        -0.2369 
      8 C8         32.3434  -43.3612  -52.8655 C.3       11 UNK         0.0226 
      9 C9         30.8218  -43.4249  -52.8608 C.ar      11 UNK        -0.0699 
     10 C10        30.1565  -44.2333  -51.9360 C.ar      11 UNK        -0.0804 
     11 C11        28.7600  -44.2812  -51.9021 C.ar      11 UNK        -0.0871 
     12 C12        28.0233  -43.5088  -52.8071 C.ar      11 UNK        -0.1008 
     13 C13        28.6743  -42.6737  -53.7235 C.ar      11 UNK        -0.0735 
     14 C14        30.0746  -42.6427  -53.7461 C.ar      11 UNK        -0.0945 
     15 C15        27.8638  -41.7371  -54.6168 C.3       11 UNK         0.0169 
     16 S16        28.4165  -41.7423  -56.3550 S.3       11 UNK        -0.2669 
     17 C17        27.0166  -42.5516  -57.2040 C.3       11 UNK        -0.0850 
     18 CA         26.9313  -44.0855  -56.9834 C.3       10 UNK         0.0855 
     19 C          25.7491  -44.6871  -57.8044 C.2       10 UNK         0.5543 
     20 N          25.9706  -45.6142  -58.7269 N.am      10 UNK        -0.7343 
     21 O          24.6024  -44.3025  -57.5912 O.2       10 UNK        -0.5027 
     22 N          28.2460  -44.7314  -57.1420 N.am      10 UNK        -0.4495 
     23 C          28.5270  -45.9940  -56.8141 C.2       10 UNK         0.4903 
     24 O          27.6829  -46.8082  -56.4400 O.2       10 UNK        -0.4860 
     25 CA         29.9976  -46.4124  -56.8810 C.3       9 UNK         0.0227 
     26 CB         30.6234  -46.3723  -55.4777 C.3       9 UNK        -0.1964 
     27 N          30.0421  -47.7758  -57.3945 N.am      9 UNK        -0.4231 
     28 C          30.4331  -48.1135  -58.6297 C.2       9 UNK         0.5014 
     29 O          30.9977  -47.3463  -59.4106 O.2       9 UNK        -0.5270 
     30 CA         30.1142  -49.5467  -59.0884 C.3       8 UNK         0.0284 
     31 CB         31.2589  -50.5036  -58.7215 C.3       8 UNK        -0.1977 
     32 N          28.8486  -50.0478  -58.5428 N.am      8 UNK        -0.4342 
     33 C          27.6409  -49.5603  -58.8604 C.2       8 UNK         0.5039 
     34 O          27.4617  -48.6521  -59.6737 O.2       8 UNK        -0.5547 
     35 CA         26.4240  -50.1668  -58.1544 C.3       7 UNK         0.0281 
     36 CB         26.6945  -51.5034  -57.4277 C.3       7 UNK        -0.1963 
     37 N          25.9164  -49.1729  -57.2173 N.am      7 UNK        -0.4444 
     38 C          24.6525  -49.0808  -56.7900 C.2       7 UNK         0.5104 
     39 O          23.7440  -49.8190  -57.1762 O.2       7 UNK        -0.5100 
     40 CA         24.3634  -47.9794  -55.7487 C.3       6 UNK         0.0396 
     41 CB         23.0734  -48.2326  -54.9402 C.3       6 UNK        -0.1801 
     42 N          25.5066  -47.7307  -54.8613 N.am      6 UNK        -0.4747 
     43 C          26.0867  -48.5975  -54.0188 C.2       6 UNK         0.5012 
     44 O          25.6498  -49.7244  -53.7704 O.2       6 UNK        -0.5003 
     45 CA         27.3592  -48.0980  -53.3058 C.3       5 UNK         0.0782 
     46 C46        26.9743  -47.4946  -51.9331 C.3       11 UNK        -0.0868 
     47 S47        28.4058  -46.8869  -50.9806 S.3       11 UNK        -0.2515 
     48 C48        28.0637  -45.1038  -50.8265 C.3       11 UNK         0.0199 
     49 N          28.3571  -49.1649  -53.1824 N.am      5 UNK        -0.4607 
     50 C          28.9799  -49.7846  -54.1924 C.2       4 UNK         0.5031 
     51 O          28.8313  -49.5021  -55.3837 O.2       4 UNK        -0.5119 
     52 CA         29.9932  -50.8677  -53.7880 C.3       4 UNK         0.0263 
     53 CB         30.1839  -51.9297  -54.8847 C.3       4 UNK        -0.1967 
     54 N          31.2849  -50.2548  -53.4804 N.am      4 UNK        -0.4237 
     55 C          31.5800  -49.6050  -52.3487 C.2       3 UNK         0.4908 
     56 O          30.8105  -49.5431  -51.3893 O.2       3 UNK        -0.5102 
     57 CA         32.9431  -48.8934  -52.2478 C.3       3 UNK         0.0241 
     58 CB         33.9511  -49.7462  -51.4528 C.3       3 UNK        -0.1971 
     59 N          33.5272  -48.4275  -53.5165 N.am      3 UNK        -0.4139 
     60 C          34.0043  -49.1412  -54.5485 C.2       2 UNK         0.5016 
     61 O          33.9209  -50.3670  -54.6240 O.2       2 UNK        -0.5319 
     62 CA         34.6583  -48.3670  -55.7117 C.3       2 UNK         0.0286 
     63 CB         33.8708  -48.5751  -57.0144 C.3       2 UNK        -0.1963 
     64 N          34.7855  -46.9278  -55.4561 N.am      2 UNK        -0.4790 
     65 C          35.7550  -46.3695  -54.7191 C.2       1 UNK         0.5024 
     66 O          36.6893  -47.0041  -54.2233 O.2       1 UNK        -0.4888 
     67 H67        39.1274  -42.4302  -55.8597 H         1 UNK         0.0892 
     68 H68        39.2567  -43.1740  -54.2649 H         1 UNK         0.0892 
     69 H69        39.8263  -44.0431  -55.6910 H         1 UNK         0.0892 
     70 H70        37.3130  -44.0004  -53.5246 H         1 UNK         0.3107 
     71 H71        35.0390  -44.4054  -55.2498 H         1 UNK         0.0773 
     72 H72        35.3077  -45.1776  -52.2902 H         1 UNK         0.0680 
     73 H73        34.9793  -43.5533  -52.8198 H         1 UNK         0.0680 
     74 H74        32.6995  -42.6451  -53.6079 H         1 UNK         0.0650 
     75 H75        32.6868  -43.0044  -51.8935 H         1 UNK         0.0650 
     76 H76        30.7293  -44.8210  -51.2314 H         1 UNK         0.1397 
     77 H77        26.9426  -43.5216  -52.7662 H         1 UNK         0.1363 
     78 H78        30.5830  -41.9883  -54.4407 H         1 UNK         0.1355 
     79 H79        26.8005  -41.9756  -54.5644 H         1 UNK         0.0707 
     80 H80        27.9655  -40.7232  -54.2280 H         1 UNK         0.0707 
     81 H81        26.0898  -42.0658  -56.8917 H         1 UNK         0.1034 
     82 H82        27.1177  -42.3355  -58.2695 H         1 UNK         0.1034 
     83 H83        26.6565  -44.2400  -55.9382 H         1 UNK         0.0482 
     84 H84        25.1952  -45.9881  -59.2494 H         1 UNK         0.3460 
     85 H85        26.8990  -45.9759  -58.8786 H         1 UNK         0.3460 
     86 H86        28.9952  -44.1197  -57.4311 H         1 UNK         0.2989 
     87 H87        30.5436  -45.7264  -57.5316 H         1 UNK         0.0559 
     88 H88        30.5778  -45.3651  -55.0624 H         1 UNK         0.0848 
     89 H89        30.1089  -47.0318  -54.7791 H         1 UNK         0.0848 
     90 H90        31.6710  -46.6663  -55.5002 H         1 UNK         0.0848 
     91 H91        29.5387  -48.4599  -56.8318 H         1 UNK         0.3144 
     92 H92        30.0211  -49.5324  -60.1765 H         1 UNK         0.0727 
     93 H93        31.0433  -51.5258  -59.0328 H         1 UNK         0.0790 
     94 H94        31.4548  -50.5081  -57.6500 H         1 UNK         0.0790 
     95 H95        32.1835  -50.2038  -59.2167 H         1 UNK         0.0790 
     96 H96        28.9035  -50.7590  -57.8279 H         1 UNK         0.3215 
     97 H97        25.6744  -50.3429  -58.9289 H         1 UNK         0.0863 
     98 H98        27.1400  -52.2385  -58.0993 H         1 UNK         0.0808 
     99 H99        27.3571  -51.3797  -56.5714 H         1 UNK         0.0808 
    100 H100       25.7662  -51.9374  -57.0558 H         1 UNK         0.0808 
    101 H101       26.5913  -48.4887  -56.8838 H         1 UNK         0.3118 
    102 H102       24.2184  -47.0600  -56.3176 H         1 UNK         0.0546 
    103 H103       22.2031  -48.2679  -55.5965 H         1 UNK         0.0828 
    104 H104       22.8976  -47.4393  -54.2140 H         1 UNK         0.0828 
    105 H105       23.1101  -49.1799  -54.4019 H         1 UNK         0.0828 
    106 H106       26.0106  -46.8744  -55.0575 H         1 UNK         0.3005 
    107 H107       27.8127  -47.3095  -53.9082 H         1 UNK         0.1257 
    108 H108       26.4676  -48.2412  -51.3179 H         1 UNK         0.0775 
    109 H109       26.2575  -46.6828  -52.0683 H         1 UNK         0.0775 
    110 H110       26.9889  -44.9183  -50.8155 H         1 UNK         0.0840 
    111 H111       28.4285  -44.7716  -49.8535 H         1 UNK         0.0840 
    112 H112       28.6188  -49.4121  -52.2374 H         1 UNK         0.2987 
    113 H113       29.6159  -51.3759  -52.8977 H         1 UNK         0.0785 
    114 H114       29.2332  -52.3973  -55.1436 H         1 UNK         0.0798 
    115 H115       30.8553  -52.7222  -54.5540 H         1 UNK         0.0798 
    116 H116       30.5982  -51.5024  -55.7960 H         1 UNK         0.0798 
    117 H117       32.0107  -50.3111  -54.1875 H         1 UNK         0.3079 
    118 H118       32.7606  -47.9856  -51.6700 H         1 UNK         0.0794 
    119 H119       33.5576  -49.9949  -50.4662 H         1 UNK         0.0786 
    120 H120       34.8895  -49.2124  -51.3018 H         1 UNK         0.0786 
    121 H121       34.1765  -50.6865  -51.9568 H         1 UNK         0.0786 
    122 H122       33.6021  -47.4220  -53.5953 H         1 UNK         0.3032 
    123 H123       35.6567  -48.7889  -55.8503 H         1 UNK         0.1094 
    124 H124       34.3369  -48.0547  -57.8513 H         1 UNK         0.0794 
    125 H125       33.8284  -49.6325  -57.2779 H         1 UNK         0.0794 
    126 H126       32.8458  -48.2187  -56.9257 H         1 UNK         0.0794 
    127 H127       34.0578  -46.3347  -55.8298 H         1 UNK         0.3016 
@<TRIPOS>BOND
     1    1    2 1    
     2    1   67 1    
     3    1   68 1    
     4    1   69 1    
     5    2    3 2    
     6    2    4 am   BACKBONE|DICT|INTERRES
     7    4    5 1    
     8    4   70 1    
     9    5    6 1    
    10    5   65 1    
    11    5   71 1    
    12    6    7 1    
    13    6   72 1    
    14    6   73 1    
    15    7    8 1    
    16    8    9 1    
    17    8   74 1    
    18    8   75 1    
    19    9   10 ar   
    20    9   14 ar   
    21   10   11 ar   
    22   10   76 1    
    23   11   12 ar   
    24   11   48 1    
    25   12   13 ar   
    26   12   77 1    
    27   13   14 ar   
    28   13   15 1    
    29   14   78 1    
    30   15   16 1    
    31   15   79 1    
    32   15   80 1    
    33   16   17 1    
    34   17   18 1    
    35   17   81 1    
    36   17   82 1    
    37   18   19 1    
    38   18   22 1    
    39   18   83 1    
    40   19   20 am   BACKBONE|DICT|INTERRES
    41   19   21 2    
    42   20   84 1    
    43   20   85 1    
    44   22   23 am   BACKBONE|DICT|INTERRES
    45   22   86 1    
    46   23   24 2    
    47   23   25 1    
    48   25   26 1    
    49   25   27 1    
    50   25   87 1    
    51   26   88 1    
    52   26   89 1    
    53   26   90 1    
    54   27   28 am   BACKBONE|DICT|INTERRES
    55   27   91 1    
    56   28   29 2    
    57   28   30 1    
    58   30   31 1    
    59   30   32 1    
    60   30   92 1    
    61   31   93 1    
    62   31   94 1    
    63   31   95 1    
    64   32   33 am   BACKBONE|DICT|INTERRES
    65   32   96 1    
    66   33   34 2    
    67   33   35 1    
    68   35   36 1    
    69   35   37 1    
    70   35   97 1    
    71   36   98 1    
    72   36   99 1    
    73   36  100 1    
    74   37   38 am   BACKBONE|DICT|INTERRES
    75   37  101 1    
    76   38   39 2    
    77   38   40 1    
    78   40   41 1    
    79   40   42 1    
    80   40  102 1    
    81   41  103 1    
    82   41  104 1    
    83   41  105 1    
    84   42   43 am   BACKBONE|DICT|INTERRES
    85   42  106 1    
    86   43   44 2    
    87   43   45 1    
    88   45   46 1    
    89   45   49 1    
    90   45  107 1    
    91   46   47 1    
    92   46  108 1    
    93   46  109 1    
    94   47   48 1    
    95   48  110 1    
    96   48  111 1    
    97   49   50 am   BACKBONE|DICT|INTERRES
    98   49  112 1    
    99   50   51 2    
   100   50   52 1    
   101   52   53 1    
   102   52   54 1    
   103   52  113 1    
   104   53  114 1    
   105   53  115 1    
   106   53  116 1    
   107   54   55 am   BACKBONE|DICT|INTERRES
   108   54  117 1    
   109   55   56 2    
   110   55   57 1    
   111   57   58 1    
   112   57   59 1    
   113   57  118 1    
   114   58  119 1    
   115   58  120 1    
   116   58  121 1    
   117   59   60 am   BACKBONE|DICT|INTERRES
   118   59  122 1    
   119   60   61 2    
   120   60   62 1    
   121   62   63 1    
   122   62   64 1    
   123   62  123 1    
   124   63  124 1    
   125   63  125 1    
   126   63  126 1    
   127   64   65 am   BACKBONE|DICT|INTERRES
   128   64  127 1    
   129   65   66 2    
@<TRIPOS>SUBSTRUCTURE
     1 UNK         1 GROUP             0       ****    0 ROOT    
