@<TRIPOS>MOLECULE
3R134
127   129    1
SMALL
USER_CHARGES


@<TRIPOS>ATOM
      1 CA         35.7338  -46.1913  -50.1339 C.3       0 UNK        -0.1968 
      2 C          34.7972  -46.6142  -51.2542 C.2       0 UNK         0.4852 
      3 O          34.9699  -47.6962  -51.8182 O.2       0 UNK        -0.5359 
      4 N          33.7948  -45.7816  -51.5719 N.am      1 UNK        -0.4300 
      5 CA         32.8208  -45.9809  -52.6566 C.3       1 UNK         0.0863 
      6 C6         31.8119  -44.8118  -52.7751 C.3       11 UNK        -0.0953 
      7 S7         32.5848  -43.1578  -52.7896 S.3       11 UNK        -0.2369 
      8 C8         33.3087  -43.0694  -54.4609 C.3       11 UNK         0.0226 
      9 C9         32.2902  -43.2634  -55.5780 C.ar      11 UNK        -0.0699 
     10 C10        32.5286  -44.2092  -56.5794 C.ar      11 UNK        -0.0804 
     11 C11        31.6106  -44.3994  -57.6196 C.ar      11 UNK        -0.0871 
     12 C12        30.4498  -43.6196  -57.6524 C.ar      11 UNK        -0.1008 
     13 C13        30.2004  -42.6672  -56.6599 C.ar      11 UNK        -0.0735 
     14 C14        31.1265  -42.4893  -55.6288 C.ar      11 UNK        -0.0945 
     15 C15        28.9358  -41.8243  -56.7059 C.3       11 UNK         0.0169 
     16 S16        27.5966  -42.6106  -55.7610 S.3       11 UNK        -0.2669 
     17 C17        26.2162  -41.4480  -56.0563 C.3       11 UNK        -0.0850 
     18 CA         25.1990  -41.9351  -57.1243 C.3       10 UNK         0.0855 
     19 C          25.7369  -41.7464  -58.5749 C.2       10 UNK         0.5543 
     20 N          25.8930  -42.7901  -59.3810 N.am      10 UNK        -0.7343 
     21 O          26.0111  -40.6193  -58.9794 O.2       10 UNK        -0.5027 
     22 N          24.6995  -43.2817  -56.8115 N.am      10 UNK        -0.4495 
     23 C          23.5729  -43.8256  -57.2878 C.2       10 UNK         0.4903 
     24 O          22.7416  -43.2023  -57.9500 O.2       10 UNK        -0.4860 
     25 CA         23.3495  -45.3224  -56.9753 C.3       9 UNK         0.0227 
     26 CB         22.3827  -45.9958  -57.9723 C.3       9 UNK        -0.1964 
     27 N          24.5964  -46.0978  -56.8691 N.am      9 UNK        -0.4231 
     28 C          25.5565  -46.2199  -57.8010 C.2       9 UNK         0.5014 
     29 O          25.5211  -45.6717  -58.9034 O.2       9 UNK        -0.5270 
     30 CA         26.7909  -47.0556  -57.4262 C.3       8 UNK         0.0284 
     31 CB         27.8872  -46.1406  -56.8610 C.3       8 UNK        -0.1977 
     32 N          26.5201  -48.1170  -56.4560 N.am      8 UNK        -0.4342 
     33 C          25.8139  -49.2292  -56.6894 C.2       8 UNK         0.5039 
     34 O          25.2639  -49.4773  -57.7640 O.2       8 UNK        -0.5547 
     35 CA         25.7423  -50.2390  -55.5245 C.3       7 UNK         0.0281 
     36 CB         24.8159  -51.4312  -55.8295 C.3       7 UNK        -0.1963 
     37 N          27.0683  -50.7498  -55.1612 N.am      7 UNK        -0.4444 
     38 C          28.0134  -50.0701  -54.4979 C.2       7 UNK         0.5104 
     39 O          27.8550  -48.9201  -54.0822 O.2       7 UNK        -0.5100 
     40 CA         29.3666  -50.7628  -54.2609 C.3       6 UNK         0.0396 
     41 CB         29.3740  -52.2845  -54.5331 C.3       6 UNK        -0.1801 
     42 N          30.4452  -50.0847  -54.9879 N.am      6 UNK        -0.4747 
     43 C          30.5681  -49.9651  -56.3198 C.2       6 UNK         0.5012 
     44 O          29.7710  -50.4510  -57.1232 O.2       6 UNK        -0.5003 
     45 CA         31.7850  -49.1956  -56.8656 C.3       5 UNK         0.0782 
     46 C46        31.3862  -47.7581  -57.2805 C.3       11 UNK        -0.0868 
     47 S47        32.7123  -46.9300  -58.2158 S.3       11 UNK        -0.2515 
     48 C48        31.8756  -45.3972  -58.7461 C.3       11 UNK         0.0199 
     49 N          32.9009  -49.1954  -55.9111 N.am      5 UNK        -0.4607 
     50 C          34.1168  -49.6914  -56.1687 C.2       4 UNK         0.5031 
     51 O          34.4121  -50.2946  -57.2013 O.2       4 UNK        -0.5119 
     52 CA         35.2030  -49.4533  -55.1079 C.3       4 UNK         0.0263 
     53 CB         35.7022  -47.9997  -55.1660 C.3       4 UNK        -0.1967 
     54 N          34.7779  -49.7689  -53.7436 N.am      4 UNK        -0.4237 
     55 C          34.5198  -51.0044  -53.2895 C.2       3 UNK         0.4908 
     56 O          34.5577  -52.0169  -53.9891 O.2       3 UNK        -0.5102 
     57 CA         34.1777  -51.1380  -51.7986 C.3       3 UNK         0.0241 
     58 CB         35.4526  -51.0761  -50.9403 C.3       3 UNK        -0.1971 
     59 N          33.2542  -50.0839  -51.3810 N.am      3 UNK        -0.4139 
     60 C          31.9279  -50.2398  -51.2754 C.2       2 UNK         0.5016 
     61 O          31.3545  -51.3207  -51.4100 O.2       2 UNK        -0.5319 
     62 CA         31.0837  -48.9867  -50.9698 C.3       2 UNK         0.0286 
     63 CB         30.6848  -48.9601  -49.4855 C.3       2 UNK        -0.1963 
     64 N          31.7389  -47.7209  -51.3090 N.am      2 UNK        -0.4790 
     65 C          32.0607  -47.3184  -52.5474 C.2       1 UNK         0.5024 
     66 O          31.8342  -47.9768  -53.5628 O.2       1 UNK        -0.4888 
     67 H67        35.7110  -46.9263  -49.3299 H         1 UNK         0.0892 
     68 H68        36.7553  -46.1258  -50.5070 H         1 UNK         0.0892 
     69 H69        35.4609  -45.2219  -49.7174 H         1 UNK         0.0892 
     70 H70        33.7082  -44.9033  -51.0797 H         1 UNK         0.3107 
     71 H71        33.3928  -46.0208  -53.5847 H         1 UNK         0.0773 
     72 H72        31.1976  -44.9254  -53.6706 H         1 UNK         0.0680 
     73 H73        31.1154  -44.8258  -51.9345 H         1 UNK         0.0680 
     74 H74        34.1093  -43.8074  -54.5309 H         1 UNK         0.0650 
     75 H75        33.7806  -42.0939  -54.5845 H         1 UNK         0.0650 
     76 H76        33.4380  -44.7932  -56.5527 H         1 UNK         0.1397 
     77 H77        29.7382  -43.7466  -58.4569 H         1 UNK         0.1363 
     78 H78        30.9380  -41.7527  -54.8598 H         1 UNK         0.1355 
     79 H79        28.6204  -41.6809  -57.7404 H         1 UNK         0.0707 
     80 H80        29.1324  -40.8303  -56.3009 H         1 UNK         0.0707 
     81 H81        25.6955  -41.3174  -55.1065 H         1 UNK         0.1034 
     82 H82        26.6041  -40.4578  -56.3040 H         1 UNK         0.1034 
     83 H83        24.3401  -41.2643  -57.0582 H         1 UNK         0.0482 
     84 H84        25.6723  -43.7330  -59.0764 H         1 UNK         0.3460 
     85 H85        26.2356  -42.6384  -60.3157 H         1 UNK         0.3460 
     86 H86        25.3353  -43.8648  -56.2877 H         1 UNK         0.2989 
     87 H87        22.8838  -45.3575  -55.9894 H         1 UNK         0.0559 
     88 H88        21.4049  -45.5126  -57.9603 H         1 UNK         0.0848 
     89 H89        22.7583  -45.9448  -58.9949 H         1 UNK         0.0848 
     90 H90        22.2258  -47.0459  -57.7257 H         1 UNK         0.0848 
     91 H91        24.7427  -46.5762  -55.9910 H         1 UNK         0.3144 
     92 H92        27.1659  -47.5218  -58.3398 H         1 UNK         0.0727 
     93 H93        28.7955  -46.6962  -56.6375 H         1 UNK         0.0790 
     94 H94        27.5695  -45.6491  -55.9409 H         1 UNK         0.0790 
     95 H95        28.1476  -45.3593  -57.5752 H         1 UNK         0.0790 
     96 H96        26.9852  -48.0520  -55.5533 H         1 UNK         0.3215 
     97 H97        25.3266  -49.7096  -54.6641 H         1 UNK         0.0863 
     98 H98        23.8090  -51.0902  -56.0748 H         1 UNK         0.0808 
     99 H99        25.1762  -52.0180  -56.6755 H         1 UNK         0.0808 
    100 H100       24.7293  -52.0972  -54.9708 H         1 UNK         0.0808 
    101 H101       27.3079  -51.6647  -55.5148 H         1 UNK         0.3118 
    102 H102       29.5767  -50.6291  -53.2019 H         1 UNK         0.0546 
    103 H103       28.6110  -52.7927  -53.9419 H         1 UNK         0.0828 
    104 H104       30.3327  -52.7203  -54.2513 H         1 UNK         0.0828 
    105 H105       29.1996  -52.5280  -55.5812 H         1 UNK         0.0828 
    106 H106       31.0874  -49.5526  -54.4098 H         1 UNK         0.3005 
    107 H107       32.0749  -49.7302  -57.7732 H         1 UNK         0.1257 
    108 H108       31.1432  -47.1552  -56.4032 H         1 UNK         0.0775 
    109 H109       30.4962  -47.7743  -57.9128 H         1 UNK         0.0775 
    110 H110       32.4985  -44.9070  -59.4951 H         1 UNK         0.0840 
    111 H111       30.9448  -45.6645  -59.2491 H         1 UNK         0.0840 
    112 H112       32.7337  -48.7188  -55.0303 H         1 UNK         0.2987 
    113 H113       36.0453  -50.1057  -55.3484 H         1 UNK         0.0785 
    114 H114       36.0618  -47.7505  -56.1653 H         1 UNK         0.0798 
    115 H115       36.5274  -47.8352  -54.4729 H         1 UNK         0.0798 
    116 H116       34.9124  -47.2904  -54.9192 H         1 UNK         0.0798 
    117 H117       34.7795  -48.9969  -53.0790 H         1 UNK         0.3079 
    118 H118       33.7232  -52.1196  -51.6475 H         1 UNK         0.0794 
    119 H119       36.1544  -51.8599  -51.2287 H         1 UNK         0.0786 
    120 H120       35.2237  -51.2192  -49.8841 H         1 UNK         0.0786 
    121 H121       35.9698  -50.1214  -51.0432 H         1 UNK         0.0786 
    122 H122       33.6468  -49.1539  -51.2840 H         1 UNK         0.3032 
    123 H123       30.1719  -49.0551  -51.5666 H         1 UNK         0.1094 
    124 H124       30.0132  -48.1291  -49.2688 H         1 UNK         0.0794 
    125 H125       30.1627  -49.8762  -49.2051 H         1 UNK         0.0794 
    126 H126       31.5554  -48.8694  -48.8346 H         1 UNK         0.0794 
    127 H127       31.9846  -47.1174  -50.5371 H         1 UNK         0.3016 
@<TRIPOS>BOND
     1    1    2 1    
     2    1   67 1    
     3    1   68 1    
     4    1   69 1    
     5    2    3 2    
     6    2    4 am   BACKBONE|DICT|INTERRES
     7    4    5 1    
     8    4   70 1    
     9    5    6 1    
    10    5   65 1    
    11    5   71 1    
    12    6    7 1    
    13    6   72 1    
    14    6   73 1    
    15    7    8 1    
    16    8    9 1    
    17    8   74 1    
    18    8   75 1    
    19    9   10 ar   
    20    9   14 ar   
    21   10   11 ar   
    22   10   76 1    
    23   11   12 ar   
    24   11   48 1    
    25   12   13 ar   
    26   12   77 1    
    27   13   14 ar   
    28   13   15 1    
    29   14   78 1    
    30   15   16 1    
    31   15   79 1    
    32   15   80 1    
    33   16   17 1    
    34   17   18 1    
    35   17   81 1    
    36   17   82 1    
    37   18   19 1    
    38   18   22 1    
    39   18   83 1    
    40   19   20 am   BACKBONE|DICT|INTERRES
    41   19   21 2    
    42   20   84 1    
    43   20   85 1    
    44   22   23 am   BACKBONE|DICT|INTERRES
    45   22   86 1    
    46   23   24 2    
    47   23   25 1    
    48   25   26 1    
    49   25   27 1    
    50   25   87 1    
    51   26   88 1    
    52   26   89 1    
    53   26   90 1    
    54   27   28 am   BACKBONE|DICT|INTERRES
    55   27   91 1    
    56   28   29 2    
    57   28   30 1    
    58   30   31 1    
    59   30   32 1    
    60   30   92 1    
    61   31   93 1    
    62   31   94 1    
    63   31   95 1    
    64   32   33 am   BACKBONE|DICT|INTERRES
    65   32   96 1    
    66   33   34 2    
    67   33   35 1    
    68   35   36 1    
    69   35   37 1    
    70   35   97 1    
    71   36   98 1    
    72   36   99 1    
    73   36  100 1    
    74   37   38 am   BACKBONE|DICT|INTERRES
    75   37  101 1    
    76   38   39 2    
    77   38   40 1    
    78   40   41 1    
    79   40   42 1    
    80   40  102 1    
    81   41  103 1    
    82   41  104 1    
    83   41  105 1    
    84   42   43 am   BACKBONE|DICT|INTERRES
    85   42  106 1    
    86   43   44 2    
    87   43   45 1    
    88   45   46 1    
    89   45   49 1    
    90   45  107 1    
    91   46   47 1    
    92   46  108 1    
    93   46  109 1    
    94   47   48 1    
    95   48  110 1    
    96   48  111 1    
    97   49   50 am   BACKBONE|DICT|INTERRES
    98   49  112 1    
    99   50   51 2    
   100   50   52 1    
   101   52   53 1    
   102   52   54 1    
   103   52  113 1    
   104   53  114 1    
   105   53  115 1    
   106   53  116 1    
   107   54   55 am   BACKBONE|DICT|INTERRES
   108   54  117 1    
   109   55   56 2    
   110   55   57 1    
   111   57   58 1    
   112   57   59 1    
   113   57  118 1    
   114   58  119 1    
   115   58  120 1    
   116   58  121 1    
   117   59   60 am   BACKBONE|DICT|INTERRES
   118   59  122 1    
   119   60   61 2    
   120   60   62 1    
   121   62   63 1    
   122   62   64 1    
   123   62  123 1    
   124   63  124 1    
   125   63  125 1    
   126   63  126 1    
   127   64   65 am   BACKBONE|DICT|INTERRES
   128   64  127 1    
   129   65   66 2    
@<TRIPOS>SUBSTRUCTURE
     1 UNK         1 GROUP             0       ****    0 ROOT    
