@<TRIPOS>MOLECULE
3R134
127   129    1
SMALL
USER_CHARGES


@<TRIPOS>ATOM
      1 CA         31.0560  -49.2393  -49.6605 C.3       0 UNK        -0.1968 
      2 C          32.3394  -48.4357  -49.8098 C.2       0 UNK         0.4852 
      3 O          33.4293  -49.0025  -49.7131 O.2       0 UNK        -0.5359 
      4 N          32.2191  -47.1196  -50.0299 N.am      1 UNK        -0.4300 
      5 CA         33.3311  -46.2102  -50.3149 C.3       1 UNK         0.0863 
      6 C6         32.9230  -44.7185  -50.1806 C.3       11 UNK        -0.0953 
      7 S7         31.4093  -44.2461  -51.0960 S.3       11 UNK        -0.2369 
      8 C8         32.0499  -43.1553  -52.4081 C.3       11 UNK         0.0226 
      9 C9         31.5521  -43.5844  -53.7805 C.ar      11 UNK        -0.0699 
     10 C10        32.4119  -44.2356  -54.6692 C.ar      11 UNK        -0.0804 
     11 C11        31.9650  -44.6331  -55.9328 C.ar      11 UNK        -0.0871 
     12 C12        30.6428  -44.3730  -56.3049 C.ar      11 UNK        -0.1008 
     13 C13        29.7651  -43.7461  -55.4155 C.ar      11 UNK        -0.0735 
     14 C14        30.2302  -43.3364  -54.1619 C.ar      11 UNK        -0.0945 
     15 C15        28.2966  -43.5875  -55.7756 C.3       11 UNK         0.0169 
     16 S16        27.9914  -42.1456  -56.8370 S.3       11 UNK        -0.2669 
     17 C17        26.1717  -42.2583  -56.9973 C.3       11 UNK        -0.0850 
     18 CA         25.6571  -42.6183  -58.4223 C.3       10 UNK         0.0855 
     19 C          25.8119  -41.4550  -59.4385 C.2       10 UNK         0.5543 
     20 N          25.1333  -40.3380  -59.2141 N.am      10 UNK        -0.7343 
     21 O          26.5332  -41.5547  -60.4309 O.2       10 UNK        -0.5027 
     22 N          26.2240  -43.8577  -58.9667 N.am      10 UNK        -0.4495 
     23 C          26.0227  -45.0994  -58.5165 C.2       10 UNK         0.4903 
     24 O          25.3484  -45.3657  -57.5195 O.2       10 UNK        -0.4860 
     25 CA         26.6585  -46.2257  -59.3510 C.3       9 UNK         0.0227 
     26 CB         28.1210  -45.9175  -59.7346 C.3       9 UNK        -0.1964 
     27 N          26.6182  -47.4969  -58.6236 N.am      9 UNK        -0.4231 
     28 C          26.0111  -48.6122  -59.0480 C.2       9 UNK         0.5014 
     29 O          25.3814  -48.6847  -60.1050 O.2       9 UNK        -0.5270 
     30 CA         26.1392  -49.8847  -58.1891 C.3       8 UNK         0.0284 
     31 CB         27.2233  -50.8139  -58.7612 C.3       8 UNK        -0.1977 
     32 N          26.4098  -49.6535  -56.7675 N.am      8 UNK        -0.4342 
     33 C          25.4817  -49.2726  -55.8778 C.2       8 UNK         0.5039 
     34 O          24.3270  -48.9708  -56.1817 O.2       8 UNK        -0.5547 
     35 CA         25.8905  -49.2646  -54.3965 C.3       7 UNK         0.0281 
     36 CB         25.8527  -50.6909  -53.8223 C.3       7 UNK        -0.1963 
     37 N          27.2305  -48.7100  -54.2166 N.am      7 UNK        -0.4444 
     38 C          27.4916  -47.4754  -53.7661 C.2       7 UNK         0.5104 
     39 O          26.6319  -46.6961  -53.3533 O.2       7 UNK        -0.5100 
     40 CA         28.9644  -47.0218  -53.7841 C.3       6 UNK         0.0396 
     41 CB         29.6201  -47.2933  -52.4257 C.3       6 UNK        -0.1801 
     42 N          29.7770  -47.6441  -54.8330 N.am      6 UNK        -0.4747 
     43 C          29.5086  -47.5987  -56.1473 C.2       6 UNK         0.5012 
     44 O          28.5584  -46.9848  -56.6259 O.2       6 UNK        -0.5003 
     45 CA         30.3753  -48.4617  -57.0866 C.3       5 UNK         0.0782 
     46 C46        31.4911  -47.6382  -57.7769 C.3       11 UNK        -0.0868 
     47 S47        32.8724  -47.1525  -56.6797 S.3       11 UNK        -0.2515 
     48 C48        32.9157  -45.3417  -56.8869 C.3       11 UNK         0.0199 
     49 N          30.8907  -49.6763  -56.4471 N.am      5 UNK        -0.4607 
     50 C          30.1631  -50.6042  -55.8077 C.2       4 UNK         0.5031 
     51 O          28.9305  -50.5970  -55.7809 O.2       4 UNK        -0.5119 
     52 CA         30.9260  -51.6914  -55.0248 C.3       4 UNK         0.0263 
     53 CB         30.7741  -53.0529  -55.7214 C.3       4 UNK        -0.1967 
     54 N          32.3544  -51.4093  -54.8208 N.am      4 UNK        -0.4237 
     55 C          32.8590  -50.3704  -54.1376 C.2       3 UNK         0.4908 
     56 O          32.1591  -49.5409  -53.5523 O.2       3 UNK        -0.5102 
     57 CA         34.3895  -50.2190  -54.1595 C.3       3 UNK         0.0241 
     58 CB         34.9749  -50.4294  -55.5767 C.3       3 UNK        -0.1971 
     59 N          34.7560  -48.8965  -53.6558 N.am      3 UNK        -0.4139 
     60 C          35.9777  -48.5050  -53.2772 C.2       2 UNK         0.5016 
     61 O          36.9592  -49.2497  -53.2613 O.2       2 UNK        -0.5319 
     62 CA         36.1531  -47.0368  -52.8437 C.3       2 UNK         0.0286 
     63 CB         36.0110  -46.0759  -54.0422 C.3       2 UNK        -0.1963 
     64 N          35.2992  -46.6417  -51.7138 N.am      2 UNK        -0.4790 
     65 C          33.9638  -46.5342  -51.6845 C.2       1 UNK         0.5024 
     66 O          33.2436  -46.6947  -52.6694 O.2       1 UNK        -0.4888 
     67 H67        30.1760  -48.5981  -49.6158 H         1 UNK         0.0892 
     68 H68        30.9427  -49.9174  -50.5063 H         1 UNK         0.0892 
     69 H69        31.0871  -49.8333  -48.7475 H         1 UNK         0.0892 
     70 H70        31.3029  -46.7063  -50.1244 H         1 UNK         0.3107 
     71 H71        34.0896  -46.3983  -49.5516 H         1 UNK         0.0773 
     72 H72        33.7549  -44.0662  -50.4502 H         1 UNK         0.0680 
     73 H73        32.7292  -44.5044  -49.1286 H         1 UNK         0.0680 
     74 H74        33.1401  -43.1377  -52.3974 H         1 UNK         0.0650 
     75 H75        31.7280  -42.1330  -52.2056 H         1 UNK         0.0650 
     76 H76        33.4294  -44.4436  -54.3705 H         1 UNK         0.1397 
     77 H77        30.2815  -44.6898  -57.2726 H         1 UNK         0.1363 
     78 H78        29.5561  -42.8540  -53.4674 H         1 UNK         0.1355 
     79 H79        27.9458  -44.4851  -56.2845 H         1 UNK         0.0707 
     80 H80        27.6975  -43.5017  -54.8676 H         1 UNK         0.0707 
     81 H81        25.7902  -42.9929  -56.2871 H         1 UNK         0.1034 
     82 H82        25.7454  -41.3107  -56.6646 H         1 UNK         0.1034 
     83 H83        24.5815  -42.7907  -58.3489 H         1 UNK         0.0482 
     84 H84        24.5272  -40.2438  -58.4142 H         1 UNK         0.3460 
     85 H85        25.2224  -39.5736  -59.8655 H         1 UNK         0.3460 
     86 H86        26.7748  -43.7102  -59.8026 H         1 UNK         0.2989 
     87 H87        26.0761  -46.2977  -60.2713 H         1 UNK         0.0559 
     88 H88        28.7165  -45.6371  -58.8662 H         1 UNK         0.0848 
     89 H89        28.1822  -45.0964  -60.4493 H         1 UNK         0.0848 
     90 H90        28.5989  -46.7784  -60.2024 H         1 UNK         0.0848 
     91 H91        27.0852  -47.4868  -57.7200 H         1 UNK         0.3144 
     92 H92        25.1856  -50.4122  -58.2639 H         1 UNK         0.0727 
     93 H93        27.2698  -51.7548  -58.2124 H         1 UNK         0.0790 
     94 H94        28.2117  -50.3578  -58.7249 H         1 UNK         0.0790 
     95 H95        27.0170  -51.0587  -59.8041 H         1 UNK         0.0790 
     96 H96        27.3261  -49.9371  -56.4276 H         1 UNK         0.3215 
     97 H97        25.1559  -48.6654  -53.8538 H         1 UNK         0.0863 
     98 H98        26.0786  -50.6928  -52.7559 H         1 UNK         0.0808 
     99 H99        26.5690  -51.3486  -54.3167 H         1 UNK         0.0808 
    100 H100       24.8635  -51.1343  -53.9445 H         1 UNK         0.0808 
    101 H101       28.0035  -49.2703  -54.5586 H         1 UNK         0.3118 
    102 H102       28.9717  -45.9462  -53.9566 H         1 UNK         0.0546 
    103 H103       29.0678  -46.8111  -51.6182 H         1 UNK         0.0828 
    104 H104       30.6360  -46.9022  -52.4062 H         1 UNK         0.0828 
    105 H105       29.6672  -48.3609  -52.2091 H         1 UNK         0.0828 
    106 H106       30.5907  -48.1653  -54.5260 H         1 UNK         0.3005 
    107 H107       29.7006  -48.7983  -57.8750 H         1 UNK         0.1257 
    108 H108       31.0661  -46.7574  -58.2607 H         1 UNK         0.0775 
    109 H109       31.9188  -48.2283  -58.5888 H         1 UNK         0.0775 
    110 H110       33.9357  -45.0001  -56.7042 H         1 UNK         0.0840 
    111 H111       32.6949  -45.0729  -57.9209 H         1 UNK         0.0840 
    112 H112       31.8959  -49.7454  -56.3966 H         1 UNK         0.2987 
    113 H113       30.4597  -51.7555  -54.0396 H         1 UNK         0.0785 
    114 H114       29.7217  -53.3072  -55.8576 H         1 UNK         0.0798 
    115 H115       31.2235  -53.8532  -55.1332 H         1 UNK         0.0798 
    116 H116       31.2396  -53.0562  -56.7079 H         1 UNK         0.0798 
    117 H117       33.0002  -52.0427  -55.2700 H         1 UNK         0.3079 
    118 H118       34.8003  -50.9704  -53.4825 H         1 UNK         0.0794 
    119 H119       34.5474  -49.7292  -56.2952 H         1 UNK         0.0786 
    120 H120       34.7916  -51.4379  -55.9475 H         1 UNK         0.0786 
    121 H121       36.0559  -50.2919  -55.5906 H         1 UNK         0.0786 
    122 H122       33.9809  -48.2423  -53.5470 H         1 UNK         0.3032 
    123 H123       37.1781  -46.9425  -52.4801 H         1 UNK         0.1094 
    124 H124       35.0384  -46.1641  -54.5258 H         1 UNK         0.0794 
    125 H125       36.1450  -45.0375  -53.7396 H         1 UNK         0.0794 
    126 H126       36.7634  -46.2934  -54.8013 H         1 UNK         0.0794 
    127 H127       35.7935  -46.5184  -50.8402 H         1 UNK         0.3016 
@<TRIPOS>BOND
     1    1    2 1    
     2    1   67 1    
     3    1   68 1    
     4    1   69 1    
     5    2    3 2    
     6    2    4 am   BACKBONE|DICT|INTERRES
     7    4    5 1    
     8    4   70 1    
     9    5    6 1    
    10    5   65 1    
    11    5   71 1    
    12    6    7 1    
    13    6   72 1    
    14    6   73 1    
    15    7    8 1    
    16    8    9 1    
    17    8   74 1    
    18    8   75 1    
    19    9   10 ar   
    20    9   14 ar   
    21   10   11 ar   
    22   10   76 1    
    23   11   12 ar   
    24   11   48 1    
    25   12   13 ar   
    26   12   77 1    
    27   13   14 ar   
    28   13   15 1    
    29   14   78 1    
    30   15   16 1    
    31   15   79 1    
    32   15   80 1    
    33   16   17 1    
    34   17   18 1    
    35   17   81 1    
    36   17   82 1    
    37   18   19 1    
    38   18   22 1    
    39   18   83 1    
    40   19   20 am   BACKBONE|DICT|INTERRES
    41   19   21 2    
    42   20   84 1    
    43   20   85 1    
    44   22   23 am   BACKBONE|DICT|INTERRES
    45   22   86 1    
    46   23   24 2    
    47   23   25 1    
    48   25   26 1    
    49   25   27 1    
    50   25   87 1    
    51   26   88 1    
    52   26   89 1    
    53   26   90 1    
    54   27   28 am   BACKBONE|DICT|INTERRES
    55   27   91 1    
    56   28   29 2    
    57   28   30 1    
    58   30   31 1    
    59   30   32 1    
    60   30   92 1    
    61   31   93 1    
    62   31   94 1    
    63   31   95 1    
    64   32   33 am   BACKBONE|DICT|INTERRES
    65   32   96 1    
    66   33   34 2    
    67   33   35 1    
    68   35   36 1    
    69   35   37 1    
    70   35   97 1    
    71   36   98 1    
    72   36   99 1    
    73   36  100 1    
    74   37   38 am   BACKBONE|DICT|INTERRES
    75   37  101 1    
    76   38   39 2    
    77   38   40 1    
    78   40   41 1    
    79   40   42 1    
    80   40  102 1    
    81   41  103 1    
    82   41  104 1    
    83   41  105 1    
    84   42   43 am   BACKBONE|DICT|INTERRES
    85   42  106 1    
    86   43   44 2    
    87   43   45 1    
    88   45   46 1    
    89   45   49 1    
    90   45  107 1    
    91   46   47 1    
    92   46  108 1    
    93   46  109 1    
    94   47   48 1    
    95   48  110 1    
    96   48  111 1    
    97   49   50 am   BACKBONE|DICT|INTERRES
    98   49  112 1    
    99   50   51 2    
   100   50   52 1    
   101   52   53 1    
   102   52   54 1    
   103   52  113 1    
   104   53  114 1    
   105   53  115 1    
   106   53  116 1    
   107   54   55 am   BACKBONE|DICT|INTERRES
   108   54  117 1    
   109   55   56 2    
   110   55   57 1    
   111   57   58 1    
   112   57   59 1    
   113   57  118 1    
   114   58  119 1    
   115   58  120 1    
   116   58  121 1    
   117   59   60 am   BACKBONE|DICT|INTERRES
   118   59  122 1    
   119   60   61 2    
   120   60   62 1    
   121   62   63 1    
   122   62   64 1    
   123   62  123 1    
   124   63  124 1    
   125   63  125 1    
   126   63  126 1    
   127   64   65 am   BACKBONE|DICT|INTERRES
   128   64  127 1    
   129   65   66 2    
@<TRIPOS>SUBSTRUCTURE
     1 UNK         1 GROUP             0       ****    0 ROOT    
