@<TRIPOS>MOLECULE
3R134
127   129    1
SMALL
USER_CHARGES


@<TRIPOS>ATOM
      1 CA         27.9720  -49.0852  -50.0771 C.3       0 UNK        -0.1968 
      2 C          29.0967  -48.0634  -49.9936 C.2       0 UNK         0.4852 
      3 O          29.6496  -47.8485  -48.9135 O.2       0 UNK        -0.5359 
      4 N          29.4312  -47.4293  -51.1238 N.am      1 UNK        -0.4300 
      5 CA         30.5433  -46.4846  -51.2563 C.3       1 UNK         0.0863 
      6 C6         30.2979  -45.5107  -52.4346 C.3       11 UNK        -0.0953 
      7 S7         31.0540  -43.8649  -52.2018 S.3       11 UNK        -0.2369 
      8 C8         32.4211  -43.8546  -53.4063 C.3       11 UNK         0.0226 
      9 C9         31.9424  -43.7416  -54.8483 C.ar      11 UNK        -0.0699 
     10 C10        31.7899  -44.8941  -55.6184 C.ar      11 UNK        -0.0804 
     11 C11        31.3943  -44.8230  -56.9586 C.ar      11 UNK        -0.0871 
     12 C12        31.1828  -43.5658  -57.5344 C.ar      11 UNK        -0.1008 
     13 C13        31.3390  -42.3953  -56.7801 C.ar      11 UNK        -0.0735 
     14 C14        31.7071  -42.4933  -55.4326 C.ar      11 UNK        -0.0945 
     15 C15        31.2130  -41.0200  -57.4316 C.3       11 UNK         0.0169 
     16 S16        29.7506  -40.8279  -58.5056 S.3       11 UNK        -0.2669 
     17 C17        28.4130  -40.4946  -57.3034 C.3       11 UNK        -0.0850 
     18 CA         27.2315  -41.4982  -57.3734 C.3       10 UNK         0.0855 
     19 C          26.4158  -41.3725  -58.6934 C.2       10 UNK         0.5543 
     20 N          25.5854  -40.3445  -58.8069 N.am      10 UNK        -0.7343 
     21 O          26.5441  -42.1720  -59.6193 O.2       10 UNK        -0.5027 
     22 N          27.6861  -42.8606  -57.0758 N.am      10 UNK        -0.4495 
     23 C          26.8924  -43.9030  -56.8112 C.2       10 UNK         0.4903 
     24 O          25.6616  -43.8469  -56.7507 O.2       10 UNK        -0.4860 
     25 CA         27.6268  -45.2077  -56.4911 C.3       9 UNK         0.0227 
     26 CB         28.1830  -45.1612  -55.0626 C.3       9 UNK        -0.1964 
     27 N          26.7516  -46.3698  -56.5935 N.am      9 UNK        -0.4231 
     28 C          26.5968  -47.1369  -57.6755 C.2       9 UNK         0.5014 
     29 O          27.1302  -46.9012  -58.7615 O.2       9 UNK        -0.5270 
     30 CA         25.7170  -48.3937  -57.5031 C.3       8 UNK         0.0284 
     31 CB         25.8939  -49.4019  -58.6546 C.3       8 UNK        -0.1977 
     32 N          25.9573  -49.0807  -56.2254 N.am      8 UNK        -0.4342 
     33 C          25.4056  -48.7323  -55.0531 C.2       8 UNK         0.5039 
     34 O          24.6698  -47.7533  -54.9248 O.2       8 UNK        -0.5547 
     35 CA         25.7238  -49.5839  -53.8118 C.3       7 UNK         0.0281 
     36 CB         24.5832  -50.5768  -53.5365 C.3       7 UNK        -0.1963 
     37 N          26.9841  -50.3189  -53.9126 N.am      7 UNK        -0.4444 
     38 C          28.1990  -49.7732  -53.7763 C.2       7 UNK         0.5104 
     39 O          28.3889  -48.5843  -53.5150 O.2       7 UNK        -0.5100 
     40 CA         29.4098  -50.7106  -53.9494 C.3       6 UNK         0.0396 
     41 CB         29.0842  -52.2078  -53.7522 C.3       6 UNK        -0.1801 
     42 N          30.0806  -50.4990  -55.2330 N.am      6 UNK        -0.4747 
     43 C          29.5341  -50.5444  -56.4613 C.2       6 UNK         0.5012 
     44 O          28.3555  -50.8352  -56.6776 O.2       6 UNK        -0.5003 
     45 CA         30.4533  -50.1836  -57.6538 C.3       5 UNK         0.0782 
     46 C46        30.2089  -48.7332  -58.1450 C.3       11 UNK        -0.0868 
     47 S47        30.5050  -47.4699  -56.8597 S.3       11 UNK        -0.2515 
     48 C48        31.2286  -46.0876  -57.8019 C.3       11 UNK         0.0199 
     49 N          31.8726  -50.4172  -57.3703 N.am      5 UNK        -0.4607 
     50 C          32.4345  -51.6209  -57.1967 C.2       4 UNK         0.5031 
     51 O          31.8317  -52.6814  -57.3643 O.2       4 UNK        -0.5119 
     52 CA         33.9115  -51.6622  -56.7544 C.3       4 UNK         0.0263 
     53 CB         34.8069  -52.1059  -57.9233 C.3       4 UNK        -0.1967 
     54 N          34.4363  -50.4051  -56.2029 N.am      4 UNK        -0.4237 
     55 C          33.9886  -49.7882  -55.1008 C.2       3 UNK         0.4908 
     56 O          33.0275  -50.1819  -54.4349 O.2       3 UNK        -0.5102 
     57 CA         34.7142  -48.4944  -54.7117 C.3       3 UNK         0.0241 
     58 CB         34.4570  -47.3842  -55.7491 C.3       3 UNK        -0.1971 
     59 N          34.2646  -48.0818  -53.3835 N.am      3 UNK        -0.4139 
     60 C          34.9284  -47.2787  -52.5460 C.2       2 UNK         0.5016 
     61 O          35.9637  -46.6855  -52.8558 O.2       2 UNK        -0.5319 
     62 CA         34.3488  -47.1213  -51.1231 C.3       2 UNK         0.0286 
     63 CB         35.2364  -46.2458  -50.2177 C.3       2 UNK        -0.1963 
     64 N          32.9890  -46.5740  -51.1069 N.am      2 UNK        -0.4790 
     65 C          31.8741  -47.2519  -51.4041 C.2       1 UNK         0.5024 
     66 O          31.8792  -48.4252  -51.7861 O.2       1 UNK        -0.4888 
     67 H67        27.3661  -49.0581  -49.1719 H         1 UNK         0.0892 
     68 H68        28.3828  -50.0887  -50.1843 H         1 UNK         0.0892 
     69 H69        27.3146  -48.8889  -50.9232 H         1 UNK         0.0892 
     70 H70        28.9984  -47.7185  -51.9998 H         1 UNK         0.3107 
     71 H71        30.5921  -45.9042  -50.3321 H         1 UNK         0.0773 
     72 H72        29.2280  -45.3180  -52.5186 H         1 UNK         0.0680 
     73 H73        30.5913  -45.9553  -53.3845 H         1 UNK         0.0680 
     74 H74        33.0765  -43.0131  -53.1771 H         1 UNK         0.0650 
     75 H75        33.0298  -44.7505  -53.2782 H         1 UNK         0.0650 
     76 H76        31.9821  -45.8530  -55.1625 H         1 UNK         0.1397 
     77 H77        30.9171  -43.4951  -58.5806 H         1 UNK         0.1363 
     78 H78        31.8484  -41.5968  -54.8444 H         1 UNK         0.1355 
     79 H79        31.2115  -40.2278  -56.6812 H         1 UNK         0.0707 
     80 H80        32.1033  -40.8563  -58.0400 H         1 UNK         0.0707 
     81 H81        28.0561  -39.4755  -57.4628 H         1 UNK         0.1034 
     82 H82        28.8254  -40.4979  -56.2932 H         1 UNK         0.1034 
     83 H83        26.5444  -41.2335  -56.5669 H         1 UNK         0.0482 
     84 H84        25.4709  -39.6787  -58.0585 H         1 UNK         0.3460 
     85 H85        25.0546  -40.2362  -59.6572 H         1 UNK         0.3460 
     86 H86        28.6852  -43.0033  -57.1208 H         1 UNK         0.2989 
     87 H87        28.4573  -45.3155  -57.1902 H         1 UNK         0.0559 
     88 H88        28.6917  -46.0933  -54.8179 H         1 UNK         0.0848 
     89 H89        27.3956  -45.0059  -54.3241 H         1 UNK         0.0848 
     90 H90        28.9082  -44.3548  -54.9457 H         1 UNK         0.0848 
     91 H91        26.1905  -46.5949  -55.7799 H         1 UNK         0.3144 
     92 H92        24.6796  -48.0533  -57.5271 H         1 UNK         0.0727 
     93 H93        25.2489  -50.2709  -58.5242 H         1 UNK         0.0790 
     94 H94        26.9225  -49.7558  -58.7270 H         1 UNK         0.0790 
     95 H95        25.6360  -48.9511  -59.6138 H         1 UNK         0.0790 
     96 H96        26.6334  -49.8390  -56.2449 H         1 UNK         0.3215 
     97 H97        25.7908  -48.9016  -52.9615 H         1 UNK         0.0863 
     98 H98        24.4677  -51.2962  -54.3483 H         1 UNK         0.0808 
     99 H99        23.6311  -50.0557  -53.4258 H         1 UNK         0.0808 
    100 H100       24.7544  -51.1331  -52.6147 H         1 UNK         0.0808 
    101 H101       26.9254  -51.2983  -54.1516 H         1 UNK         0.3118 
    102 H102       30.1279  -50.4258  -53.1786 H         1 UNK         0.0546 
    103 H103       28.4392  -52.6032  -54.5374 H         1 UNK         0.0828 
    104 H104       29.9971  -52.8035  -53.7530 H         1 UNK         0.0828 
    105 H105       28.5922  -52.3821  -52.7943 H         1 UNK         0.0828 
    106 H106       31.0585  -50.2370  -55.1605 H         1 UNK         0.3005 
    107 H107       30.1725  -50.8577  -58.4665 H         1 UNK         0.1257 
    108 H108       29.1833  -48.6253  -58.4995 H         1 UNK         0.0775 
    109 H109       30.8417  -48.5249  -59.0091 H         1 UNK         0.0775 
    110 H110       32.2016  -46.3858  -58.1941 H         1 UNK         0.0840 
    111 H111       30.5876  -45.8846  -58.6615 H         1 UNK         0.0840 
    112 H112       32.4348  -49.5947  -57.2128 H         1 UNK         0.2987 
    113 H113       33.9813  -52.4154  -55.9667 H         1 UNK         0.0785 
    114 H114       34.7998  -51.3779  -58.7356 H         1 UNK         0.0798 
    115 H115       34.4692  -53.0576  -58.3365 H         1 UNK         0.0798 
    116 H116       35.8399  -52.2449  -57.6035 H         1 UNK         0.0798 
    117 H117       35.2202  -49.9992  -56.6943 H         1 UNK         0.3079 
    118 H118       35.7846  -48.7061  -54.6618 H         1 UNK         0.0794 
    119 H119       33.4006  -47.3125  -55.9986 H         1 UNK         0.0786 
    120 H120       34.9905  -47.5861  -56.6782 H         1 UNK         0.0786 
    121 H121       34.7887  -46.4074  -55.3969 H         1 UNK         0.0786 
    122 H122       33.4174  -48.5440  -53.0565 H         1 UNK         0.3032 
    123 H123       34.3224  -48.1223  -50.6856 H         1 UNK         0.1094 
    124 H124       35.3060  -45.2221  -50.5880 H         1 UNK         0.0794 
    125 H125       34.8510  -46.2093  -49.1986 H         1 UNK         0.0794 
    126 H126       36.2511  -46.6426  -50.1621 H         1 UNK         0.0794 
    127 H127       32.9015  -45.6032  -50.8403 H         1 UNK         0.3016 
@<TRIPOS>BOND
     1    1    2 1    
     2    1   67 1    
     3    1   68 1    
     4    1   69 1    
     5    2    3 2    
     6    2    4 am   BACKBONE|DICT|INTERRES
     7    4    5 1    
     8    4   70 1    
     9    5    6 1    
    10    5   65 1    
    11    5   71 1    
    12    6    7 1    
    13    6   72 1    
    14    6   73 1    
    15    7    8 1    
    16    8    9 1    
    17    8   74 1    
    18    8   75 1    
    19    9   10 ar   
    20    9   14 ar   
    21   10   11 ar   
    22   10   76 1    
    23   11   12 ar   
    24   11   48 1    
    25   12   13 ar   
    26   12   77 1    
    27   13   14 ar   
    28   13   15 1    
    29   14   78 1    
    30   15   16 1    
    31   15   79 1    
    32   15   80 1    
    33   16   17 1    
    34   17   18 1    
    35   17   81 1    
    36   17   82 1    
    37   18   19 1    
    38   18   22 1    
    39   18   83 1    
    40   19   20 am   BACKBONE|DICT|INTERRES
    41   19   21 2    
    42   20   84 1    
    43   20   85 1    
    44   22   23 am   BACKBONE|DICT|INTERRES
    45   22   86 1    
    46   23   24 2    
    47   23   25 1    
    48   25   26 1    
    49   25   27 1    
    50   25   87 1    
    51   26   88 1    
    52   26   89 1    
    53   26   90 1    
    54   27   28 am   BACKBONE|DICT|INTERRES
    55   27   91 1    
    56   28   29 2    
    57   28   30 1    
    58   30   31 1    
    59   30   32 1    
    60   30   92 1    
    61   31   93 1    
    62   31   94 1    
    63   31   95 1    
    64   32   33 am   BACKBONE|DICT|INTERRES
    65   32   96 1    
    66   33   34 2    
    67   33   35 1    
    68   35   36 1    
    69   35   37 1    
    70   35   97 1    
    71   36   98 1    
    72   36   99 1    
    73   36  100 1    
    74   37   38 am   BACKBONE|DICT|INTERRES
    75   37  101 1    
    76   38   39 2    
    77   38   40 1    
    78   40   41 1    
    79   40   42 1    
    80   40  102 1    
    81   41  103 1    
    82   41  104 1    
    83   41  105 1    
    84   42   43 am   BACKBONE|DICT|INTERRES
    85   42  106 1    
    86   43   44 2    
    87   43   45 1    
    88   45   46 1    
    89   45   49 1    
    90   45  107 1    
    91   46   47 1    
    92   46  108 1    
    93   46  109 1    
    94   47   48 1    
    95   48  110 1    
    96   48  111 1    
    97   49   50 am   BACKBONE|DICT|INTERRES
    98   49  112 1    
    99   50   51 2    
   100   50   52 1    
   101   52   53 1    
   102   52   54 1    
   103   52  113 1    
   104   53  114 1    
   105   53  115 1    
   106   53  116 1    
   107   54   55 am   BACKBONE|DICT|INTERRES
   108   54  117 1    
   109   55   56 2    
   110   55   57 1    
   111   57   58 1    
   112   57   59 1    
   113   57  118 1    
   114   58  119 1    
   115   58  120 1    
   116   58  121 1    
   117   59   60 am   BACKBONE|DICT|INTERRES
   118   59  122 1    
   119   60   61 2    
   120   60   62 1    
   121   62   63 1    
   122   62   64 1    
   123   62  123 1    
   124   63  124 1    
   125   63  125 1    
   126   63  126 1    
   127   64   65 am   BACKBONE|DICT|INTERRES
   128   64  127 1    
   129   65   66 2    
@<TRIPOS>SUBSTRUCTURE
     1 UNK         1 GROUP             0       ****    0 ROOT    
