@<TRIPOS>MOLECULE
3R134
127   129    1
SMALL
USER_CHARGES


@<TRIPOS>ATOM
      1 CA         38.2767  -42.6078  -53.6362 C.3       0 UNK        -0.1968 
      2 C          37.4610  -43.8713  -53.3997 C.2       0 UNK         0.4852 
      3 O          37.5248  -44.4304  -52.3038 O.2       0 UNK        -0.5359 
      4 N          36.7023  -44.3006  -54.4201 N.am      1 UNK        -0.4300 
      5 CA         35.8490  -45.4977  -54.4875 C.3       1 UNK         0.0863 
      6 C6         34.7874  -45.5961  -53.3565 C.3       11 UNK        -0.0953 
      7 S7         33.5447  -44.2642  -53.4298 S.3       11 UNK        -0.2369 
      8 C8         32.0889  -45.1957  -54.0012 C.3       11 UNK         0.0226 
      9 C9         30.7971  -44.4598  -53.6922 C.ar      11 UNK        -0.0699 
     10 C10        30.2956  -44.4659  -52.3879 C.ar      11 UNK        -0.0804 
     11 C11        29.0736  -43.8552  -52.0936 C.ar      11 UNK        -0.0871 
     12 C12        28.3670  -43.2090  -53.1109 C.ar      11 UNK        -0.1008 
     13 C13        28.8599  -43.1947  -54.4191 C.ar      11 UNK        -0.0735 
     14 C14        30.0783  -43.8186  -54.7053 C.ar      11 UNK        -0.0945 
     15 C15        28.0476  -42.5429  -55.5256 C.3       11 UNK         0.0169 
     16 S16        26.6061  -43.5735  -55.9228 S.3       11 UNK        -0.2669 
     17 C17        25.9120  -42.7216  -57.3816 C.3       11 UNK        -0.0850 
     18 CA         26.2755  -43.4027  -58.7307 C.3       10 UNK         0.0855 
     19 C          27.6740  -42.9630  -59.2593 C.2       10 UNK         0.5543 
     20 N          28.5939  -43.8639  -59.5819 N.am      10 UNK        -0.7343 
     21 O          27.9262  -41.7680  -59.3929 O.2       10 UNK        -0.5027 
     22 N          26.0634  -44.8559  -58.6643 N.am      10 UNK        -0.4495 
     23 C          25.7983  -45.6616  -59.6963 C.2       10 UNK         0.4903 
     24 O          25.5926  -45.2622  -60.8437 O.2       10 UNK        -0.4860 
     25 CA         25.7789  -47.1712  -59.3764 C.3       9 UNK         0.0227 
     26 CB         25.7971  -48.0492  -60.6450 C.3       9 UNK        -0.1964 
     27 N          26.8476  -47.5880  -58.4549 N.am      9 UNK        -0.4231 
     28 C          28.1706  -47.4100  -58.6131 C.2       9 UNK         0.5014 
     29 O          28.6709  -46.7905  -59.5526 O.2       9 UNK        -0.5270 
     30 CA         29.1073  -48.0069  -57.5457 C.3       8 UNK         0.0284 
     31 CB         29.5863  -46.9074  -56.5818 C.3       8 UNK        -0.1977 
     32 N          28.5165  -49.1002  -56.7708 N.am      8 UNK        -0.4342 
     33 C          28.1278  -50.2868  -57.2577 C.2       8 UNK         0.5039 
     34 O          28.2716  -50.6283  -58.4320 O.2       8 UNK        -0.5547 
     35 CA         27.4349  -51.2466  -56.2755 C.3       7 UNK         0.0281 
     36 CB         28.4536  -52.1880  -55.6140 C.3       7 UNK        -0.1963 
     37 N          26.6703  -50.5522  -55.2355 N.am      7 UNK        -0.4444 
     38 C          25.5219  -49.8921  -55.4387 C.2       7 UNK         0.5104 
     39 O          24.9796  -49.7795  -56.5382 O.2       7 UNK        -0.5100 
     40 CA         24.8792  -49.2362  -54.2038 C.3       6 UNK         0.0396 
     41 CB         24.0508  -50.2634  -53.4159 C.3       6 UNK        -0.1801 
     42 N          25.8664  -48.6161  -53.3153 N.am      6 UNK        -0.4747 
     43 C          26.5300  -47.4869  -53.6058 C.2       6 UNK         0.5012 
     44 O          26.3493  -46.8403  -54.6368 O.2       6 UNK        -0.5003 
     45 CA         27.5999  -47.0283  -52.5915 C.3       5 UNK         0.0782 
     46 C46        26.9488  -46.1877  -51.4607 C.3       11 UNK        -0.0868 
     47 S47        28.1411  -45.6448  -50.1855 S.3       11 UNK        -0.2515 
     48 C48        28.4986  -43.9285  -50.6868 C.3       11 UNK         0.0199 
     49 N          28.4234  -48.1301  -52.0668 N.am      5 UNK        -0.4607 
     50 C          29.1364  -48.9860  -52.8089 C.2       4 UNK         0.5031 
     51 O          29.0824  -49.0293  -54.0381 O.2       4 UNK        -0.5119 
     52 CA         30.0179  -49.9960  -52.0537 C.3       4 UNK         0.0263 
     53 CB         29.1607  -51.1547  -51.5169 C.3       4 UNK        -0.1967 
     54 N          31.0615  -50.5436  -52.9263 N.am      4 UNK        -0.4237 
     55 C          32.1241  -49.8550  -53.3614 C.2       3 UNK         0.4908 
     56 O          32.4408  -48.7356  -52.9480 O.2       3 UNK        -0.5102 
     57 CA         32.9562  -50.5172  -54.4674 C.3       3 UNK         0.0241 
     58 CB         32.1976  -50.4831  -55.8113 C.3       3 UNK        -0.1971 
     59 N          34.2151  -49.7887  -54.5884 N.am      3 UNK        -0.4139 
     60 C          35.3222  -50.2006  -55.2194 C.2       2 UNK         0.5016 
     61 O          35.4286  -51.3070  -55.7511 O.2       2 UNK        -0.5319 
     62 CA         36.4943  -49.2022  -55.2894 C.3       2 UNK         0.0286 
     63 CB         37.3374  -49.3627  -56.5703 C.3       2 UNK        -0.1963 
     64 N          36.0077  -47.8236  -55.1850 N.am      2 UNK        -0.4790 
     65 C          36.6538  -46.8121  -54.5935 C.2       1 UNK         0.5024 
     66 O          37.7963  -46.9084  -54.1407 O.2       1 UNK        -0.4888 
     67 H67        37.9961  -41.8402  -52.9154 H         1 UNK         0.0892 
     68 H68        39.3386  -42.8190  -53.5132 H         1 UNK         0.0892 
     69 H69        38.1257  -42.2031  -54.6368 H         1 UNK         0.0892 
     70 H70        36.7341  -43.7735  -55.2816 H         1 UNK         0.3107 
     71 H71        35.3116  -45.3999  -55.4326 H         1 UNK         0.0773 
     72 H72        34.2688  -46.5549  -53.3968 H         1 UNK         0.0680 
     73 H73        35.2540  -45.5742  -52.3716 H         1 UNK         0.0680 
     74 H74        32.0491  -46.1685  -53.5106 H         1 UNK         0.0650 
     75 H75        32.1825  -45.3923  -55.0703 H         1 UNK         0.0650 
     76 H76        30.8424  -44.9758  -51.6061 H         1 UNK         0.1397 
     77 H77        27.4143  -42.7436  -52.8971 H         1 UNK         0.1363 
     78 H78        30.4552  -43.8247  -55.7189 H         1 UNK         0.1355 
     79 H79        27.7163  -41.5524  -55.2102 H         1 UNK         0.0707 
     80 H80        28.6569  -42.4030  -56.4197 H         1 UNK         0.0707 
     81 H81        24.8271  -42.7300  -57.2668 H         1 UNK         0.1034 
     82 H82        26.1889  -41.6655  -57.3717 H         1 UNK         0.1034 
     83 H83        25.5725  -43.0134  -59.4696 H         1 UNK         0.0482 
     84 H84        28.4110  -44.8601  -59.5162 H         1 UNK         0.3460 
     85 H85        29.4846  -43.5467  -59.9283 H         1 UNK         0.3460 
     86 H86        26.2336  -45.2681  -57.7573 H         1 UNK         0.2989 
     87 H87        24.8386  -47.3610  -58.8568 H         1 UNK         0.0559 
     88 H88        24.9391  -47.8354  -61.2835 H         1 UNK         0.0848 
     89 H89        25.7566  -49.1091  -60.3933 H         1 UNK         0.0848 
     90 H90        26.6960  -47.8806  -61.2391 H         1 UNK         0.0848 
     91 H91        26.5433  -48.0985  -57.6360 H         1 UNK         0.3144 
     92 H92        29.9783  -48.4087  -58.0672 H         1 UNK         0.0727 
     93 H93        28.7588  -46.4788  -56.0146 H         1 UNK         0.0790 
     94 H94        30.0650  -46.0913  -57.1247 H         1 UNK         0.0790 
     95 H95        30.3149  -47.2927  -55.8681 H         1 UNK         0.0790 
     96 H96        28.4678  -48.9633  -55.7619 H         1 UNK         0.3215 
     97 H97        26.7386  -51.8557  -56.8563 H         1 UNK         0.0863 
     98 H98        27.9557  -52.9575  -55.0238 H         1 UNK         0.0808 
     99 H99        29.1307  -51.6469  -54.9545 H         1 UNK         0.0808 
    100 H100       29.0610  -52.6977  -56.3634 H         1 UNK         0.0808 
    101 H101       27.0731  -50.5332  -54.3107 H         1 UNK         0.3118 
    102 H102       24.1998  -48.4574  -54.5573 H         1 UNK         0.0546 
    103 H103       24.6710  -51.0651  -53.0132 H         1 UNK         0.0828 
    104 H104       23.2958  -50.7255  -54.0536 H         1 UNK         0.0828 
    105 H105       23.5252  -49.7947  -52.5838 H         1 UNK         0.0828 
    106 H106       26.0739  -49.0889  -52.4472 H         1 UNK         0.3005 
    107 H107       28.2779  -46.3781  -53.1485 H         1 UNK         0.1257 
    108 H108       26.1741  -46.7669  -50.9546 H         1 UNK         0.0775 
    109 H109       26.4457  -45.3123  -51.8765 H         1 UNK         0.0775 
    110 H110       27.5867  -43.3349  -50.6034 H         1 UNK         0.0840 
    111 H111       29.2125  -43.4946  -49.9852 H         1 UNK         0.0840 
    112 H112       28.5158  -48.1587  -51.0615 H         1 UNK         0.2987 
    113 H113       30.4954  -49.4841  -51.2154 H         1 UNK         0.0785 
    114 H114       28.3938  -50.7934  -50.8306 H         1 UNK         0.0798 
    115 H115       29.7680  -51.8739  -50.9669 H         1 UNK         0.0798 
    116 H116       28.6529  -51.6907  -52.3198 H         1 UNK         0.0798 
    117 H117       30.8744  -51.4474  -53.3336 H         1 UNK         0.3079 
    118 H118       33.1665  -51.5495  -54.1799 H         1 UNK         0.0794 
    119 H119       32.7827  -50.9286  -56.6158 H         1 UNK         0.0786 
    120 H120       31.9474  -49.4628  -56.1055 H         1 UNK         0.0786 
    121 H121       31.2636  -51.0402  -55.7544 H         1 UNK         0.0786 
    122 H122       34.2148  -48.9078  -54.0888 H         1 UNK         0.3032 
    123 H123       37.1295  -49.4257  -54.4289 H         1 UNK         0.1094 
    124 H124       36.7420  -49.1852  -57.4665 H         1 UNK         0.0794 
    125 H125       38.1777  -48.6683  -56.5826 H         1 UNK         0.0794 
    126 H126       37.7527  -50.3685  -56.6459 H         1 UNK         0.0794 
    127 H127       35.0878  -47.6573  -55.5710 H         1 UNK         0.3016 
@<TRIPOS>BOND
     1    1    2 1    
     2    1   67 1    
     3    1   68 1    
     4    1   69 1    
     5    2    3 2    
     6    2    4 am   BACKBONE|DICT|INTERRES
     7    4    5 1    
     8    4   70 1    
     9    5    6 1    
    10    5   65 1    
    11    5   71 1    
    12    6    7 1    
    13    6   72 1    
    14    6   73 1    
    15    7    8 1    
    16    8    9 1    
    17    8   74 1    
    18    8   75 1    
    19    9   10 ar   
    20    9   14 ar   
    21   10   11 ar   
    22   10   76 1    
    23   11   12 ar   
    24   11   48 1    
    25   12   13 ar   
    26   12   77 1    
    27   13   14 ar   
    28   13   15 1    
    29   14   78 1    
    30   15   16 1    
    31   15   79 1    
    32   15   80 1    
    33   16   17 1    
    34   17   18 1    
    35   17   81 1    
    36   17   82 1    
    37   18   19 1    
    38   18   22 1    
    39   18   83 1    
    40   19   20 am   BACKBONE|DICT|INTERRES
    41   19   21 2    
    42   20   84 1    
    43   20   85 1    
    44   22   23 am   BACKBONE|DICT|INTERRES
    45   22   86 1    
    46   23   24 2    
    47   23   25 1    
    48   25   26 1    
    49   25   27 1    
    50   25   87 1    
    51   26   88 1    
    52   26   89 1    
    53   26   90 1    
    54   27   28 am   BACKBONE|DICT|INTERRES
    55   27   91 1    
    56   28   29 2    
    57   28   30 1    
    58   30   31 1    
    59   30   32 1    
    60   30   92 1    
    61   31   93 1    
    62   31   94 1    
    63   31   95 1    
    64   32   33 am   BACKBONE|DICT|INTERRES
    65   32   96 1    
    66   33   34 2    
    67   33   35 1    
    68   35   36 1    
    69   35   37 1    
    70   35   97 1    
    71   36   98 1    
    72   36   99 1    
    73   36  100 1    
    74   37   38 am   BACKBONE|DICT|INTERRES
    75   37  101 1    
    76   38   39 2    
    77   38   40 1    
    78   40   41 1    
    79   40   42 1    
    80   40  102 1    
    81   41  103 1    
    82   41  104 1    
    83   41  105 1    
    84   42   43 am   BACKBONE|DICT|INTERRES
    85   42  106 1    
    86   43   44 2    
    87   43   45 1    
    88   45   46 1    
    89   45   49 1    
    90   45  107 1    
    91   46   47 1    
    92   46  108 1    
    93   46  109 1    
    94   47   48 1    
    95   48  110 1    
    96   48  111 1    
    97   49   50 am   BACKBONE|DICT|INTERRES
    98   49  112 1    
    99   50   51 2    
   100   50   52 1    
   101   52   53 1    
   102   52   54 1    
   103   52  113 1    
   104   53  114 1    
   105   53  115 1    
   106   53  116 1    
   107   54   55 am   BACKBONE|DICT|INTERRES
   108   54  117 1    
   109   55   56 2    
   110   55   57 1    
   111   57   58 1    
   112   57   59 1    
   113   57  118 1    
   114   58  119 1    
   115   58  120 1    
   116   58  121 1    
   117   59   60 am   BACKBONE|DICT|INTERRES
   118   59  122 1    
   119   60   61 2    
   120   60   62 1    
   121   62   63 1    
   122   62   64 1    
   123   62  123 1    
   124   63  124 1    
   125   63  125 1    
   126   63  126 1    
   127   64   65 am   BACKBONE|DICT|INTERRES
   128   64  127 1    
   129   65   66 2    
@<TRIPOS>SUBSTRUCTURE
     1 UNK         1 GROUP             0       ****    0 ROOT    
