@<TRIPOS>MOLECULE
3R134
127   129    1
SMALL
USER_CHARGES


@<TRIPOS>ATOM
      1 CA         31.0518  -44.4991  -48.2639 C.3       0 UNK        -0.1968 
      2 C          32.4046  -44.7905  -48.8971 C.2       0 UNK         0.4852 
      3 O          33.4221  -44.2878  -48.4176 O.2       0 UNK        -0.5359 
      4 N          32.4151  -45.5969  -49.9640 N.am      1 UNK        -0.4300 
      5 CA         33.6060  -46.0474  -50.6886 C.3       1 UNK         0.0863 
      6 C6         33.7182  -45.4092  -52.0978 C.3       11 UNK        -0.0953 
      7 S7         33.9271  -43.5978  -52.0419 S.3       11 UNK        -0.2369 
      8 C8         32.2303  -43.0090  -52.3917 C.3       11 UNK         0.0226 
      9 C9         31.7298  -43.2010  -53.8262 C.ar      11 UNK        -0.0699 
     10 C10        32.5898  -43.4834  -54.8965 C.ar      11 UNK        -0.0804 
     11 C11        32.0887  -43.6352  -56.1911 C.ar      11 UNK        -0.0871 
     12 C12        30.7228  -43.4839  -56.4194 C.ar      11 UNK        -0.1008 
     13 C13        29.8416  -43.2215  -55.3696 C.ar      11 UNK        -0.0735 
     14 C14        30.3571  -43.0749  -54.0765 C.ar      11 UNK        -0.0945 
     15 C15        28.3342  -43.1610  -55.6087 C.3       11 UNK         0.0169 
     16 S16        27.8291  -42.0239  -56.9450 S.3       11 UNK        -0.2669 
     17 C17        27.7818  -43.0979  -58.4286 C.3       11 UNK        -0.0850 
     18 CA         26.3858  -43.7182  -58.6791 C.3       10 UNK         0.0855 
     19 C          26.2884  -44.3072  -60.1094 C.2       10 UNK         0.5543 
     20 N          25.5725  -43.6460  -61.0079 N.am      10 UNK        -0.7343 
     21 O          26.8924  -45.3318  -60.4206 O.2       10 UNK        -0.5027 
     22 N          26.1002  -44.7649  -57.6941 N.am      10 UNK        -0.4495 
     23 C          24.8834  -45.0598  -57.2268 C.2       10 UNK         0.4903 
     24 O          23.8623  -44.4346  -57.5193 O.2       10 UNK        -0.4860 
     25 CA         24.8115  -46.2596  -56.2657 C.3       9 UNK         0.0227 
     26 CB         23.3705  -46.6267  -55.8518 C.3       9 UNK        -0.1964 
     27 N          25.5250  -47.4313  -56.7841 N.am      9 UNK        -0.4231 
     28 C          25.2659  -48.1262  -57.9043 C.2       9 UNK         0.5014 
     29 O          24.3403  -47.8700  -58.6756 O.2       9 UNK        -0.5270 
     30 CA         26.1929  -49.3159  -58.2325 C.3       8 UNK         0.0284 
     31 CB         27.0826  -48.9792  -59.4406 C.3       8 UNK        -0.1977 
     32 N          27.0482  -49.7274  -57.1156 N.am      8 UNK        -0.4342 
     33 C          26.6245  -50.3094  -55.9851 C.2       8 UNK         0.5039 
     34 O          25.4655  -50.6778  -55.7942 O.2       8 UNK        -0.5547 
     35 CA         27.6586  -50.4424  -54.8549 C.3       7 UNK         0.0281 
     36 CB         28.4377  -51.7622  -54.9683 C.3       7 UNK        -0.1963 
     37 N          28.5844  -49.3029  -54.8223 N.am      7 UNK        -0.4444 
     38 C          28.2430  -48.0717  -54.4136 C.2       7 UNK         0.5104 
     39 O          27.1303  -47.7852  -53.9742 O.2       7 UNK        -0.5100 
     40 CA         29.2936  -46.9604  -54.5569 C.3       6 UNK         0.0396 
     41 CB         30.1390  -46.8381  -53.2827 C.3       6 UNK        -0.1801 
     42 N          30.1556  -47.1466  -55.7278 N.am      6 UNK        -0.4747 
     43 C          29.7722  -46.8656  -56.9839 C.2       6 UNK         0.5012 
     44 O          28.6778  -46.3675  -57.2591 O.2       6 UNK        -0.5003 
     45 CA         30.7244  -47.2661  -58.1358 C.3       5 UNK         0.0782 
     46 C46        31.6070  -46.0950  -58.6424 C.3       11 UNK        -0.0868 
     47 S47        33.0986  -45.7693  -57.6273 S.3       11 UNK        -0.2515 
     48 C48        33.0179  -43.9724  -57.3453 C.3       11 UNK         0.0199 
     49 N          31.5318  -48.4526  -57.8446 N.am      5 UNK        -0.4607 
     50 C          31.0646  -49.6742  -57.5733 C.2       4 UNK         0.5031 
     51 O          29.8663  -49.9541  -57.5600 O.2       4 UNK        -0.5119 
     52 CA         32.0963  -50.7558  -57.2027 C.3       4 UNK         0.0263 
     53 CB         33.5525  -50.3898  -57.5723 C.3       4 UNK        -0.1967 
     54 N          32.0098  -51.1229  -55.7840 N.am      4 UNK        -0.4237 
     55 C          32.1061  -50.3035  -54.7248 C.2       3 UNK         0.4908 
     56 O          32.2505  -49.0823  -54.8132 O.2       3 UNK        -0.5102 
     57 CA         31.9604  -50.9382  -53.3269 C.3       3 UNK         0.0241 
     58 CB         32.0869  -52.4801  -53.3093 C.3       3 UNK        -0.1971 
     59 N          32.8693  -50.3359  -52.3459 N.am      3 UNK        -0.4139 
     60 C          34.2091  -50.3236  -52.3682 C.2       2 UNK         0.5016 
     61 O          34.8909  -50.8195  -53.2680 O.2       2 UNK        -0.5319 
     62 CA         34.8984  -49.6547  -51.1596 C.3       2 UNK         0.0286 
     63 CB         36.4121  -49.9392  -51.1149 C.3       2 UNK        -0.1963 
     64 N          34.6947  -48.2031  -51.1020 N.am      2 UNK        -0.4790 
     65 C          33.5525  -47.5839  -50.7761 C.2       1 UNK         0.5024 
     66 O          32.4969  -48.1820  -50.5421 O.2       1 UNK        -0.4888 
     67 H67        30.8548  -43.4275  -48.2784 H         1 UNK         0.0892 
     68 H68        30.2384  -44.9994  -48.7891 H         1 UNK         0.0892 
     69 H69        31.0425  -44.8338  -47.2270 H         1 UNK         0.0892 
     70 H70        31.5626  -46.0597  -50.2488 H         1 UNK         0.3107 
     71 H71        34.5036  -45.7966  -50.1192 H         1 UNK         0.0773 
     72 H72        34.5849  -45.8078  -52.6279 H         1 UNK         0.0680 
     73 H73        32.8573  -45.6607  -52.7141 H         1 UNK         0.0680 
     74 H74        32.1915  -41.9439  -52.1607 H         1 UNK         0.0650 
     75 H75        31.5447  -43.4977  -51.6986 H         1 UNK         0.0650 
     76 H76        33.6525  -43.5911  -54.7348 H         1 UNK         0.1397 
     77 H77        30.3514  -43.5884  -57.4222 H         1 UNK         0.1363 
     78 H78        29.6846  -42.8714  -53.2543 H         1 UNK         0.1355 
     79 H79        27.9661  -44.1633  -55.8195 H         1 UNK         0.0707 
     80 H80        27.8259  -42.8420  -54.6977 H         1 UNK         0.0707 
     81 H81        28.0774  -42.4744  -59.2748 H         1 UNK         0.1034 
     82 H82        28.5239  -43.8916  -58.3711 H         1 UNK         0.1034 
     83 H83        25.6445  -42.9216  -58.5836 H         1 UNK         0.0482 
     84 H84        25.0804  -42.8006  -60.7632 H         1 UNK         0.3460 
     85 H85        25.5119  -44.0067  -61.9473 H         1 UNK         0.3460 
     86 H86        26.8791  -45.3748  -57.4674 H         1 UNK         0.2989 
     87 H87        25.3434  -45.9575  -55.3622 H         1 UNK         0.0559 
     88 H88        22.7569  -46.8996  -56.7109 H         1 UNK         0.0848 
     89 H89        22.8809  -45.7865  -55.3580 H         1 UNK         0.0848 
     90 H90        23.3605  -47.4633  -55.1530 H         1 UNK         0.0848 
     91 H91        26.3122  -47.7335  -56.2268 H         1 UNK         0.3144 
     92 H92        25.5572  -50.1630  -58.4981 H         1 UNK         0.0727 
     93 H93        27.7392  -49.8102  -59.6994 H         1 UNK         0.0790 
     94 H94        27.7036  -48.1040  -59.2486 H         1 UNK         0.0790 
     95 H95        26.4772  -48.7562  -60.3202 H         1 UNK         0.0790 
     96 H96        28.0477  -49.5681  -57.2230 H         1 UNK         0.3215 
     97 H97        27.1085  -50.4602  -53.9111 H         1 UNK         0.0863 
     98 H98        29.0894  -51.9094  -54.1085 H         1 UNK         0.0808 
     99 H99        29.0467  -51.8052  -55.8709 H         1 UNK         0.0808 
    100 H100       27.7549  -52.6124  -54.9995 H         1 UNK         0.0808 
    101 H101       29.4920  -49.4315  -55.2464 H         1 UNK         0.3118 
    102 H102       28.7522  -46.0206  -54.6715 H         1 UNK         0.0546 
    103 H103       30.7784  -47.7057  -53.1216 H         1 UNK         0.0828 
    104 H104       30.7679  -45.9525  -53.3335 H         1 UNK         0.0828 
    105 H105       29.5058  -46.7302  -52.4012 H         1 UNK         0.0828 
    106 H106       31.0592  -47.5844  -55.5719 H         1 UNK         0.3005 
    107 H107       30.0662  -47.5437  -58.9619 H         1 UNK         0.1257 
    108 H108       31.0158  -45.1896  -58.7739 H         1 UNK         0.0775 
    109 H109       31.9643  -46.3381  -59.6442 H         1 UNK         0.0775 
    110 H110       34.0235  -43.6078  -57.1300 H         1 UNK         0.0840 
    111 H111       32.7024  -43.4627  -58.2570 H         1 UNK         0.0840 
    112 H112       32.5266  -48.2914  -57.7761 H         1 UNK         0.2987 
    113 H113       31.8221  -51.6432  -57.7752 H         1 UNK         0.0785 
    114 H114       33.6418  -50.1381  -58.6301 H         1 UNK         0.0798 
    115 H115       34.2215  -51.2308  -57.3889 H         1 UNK         0.0798 
    116 H116       33.9290  -49.5450  -56.9939 H         1 UNK         0.0798 
    117 H117       31.8635  -52.1056  -55.6012 H         1 UNK         0.3079 
    118 H118       30.9541  -50.6855  -52.9902 H         1 UNK         0.0794 
    119 H119       33.0491  -52.8155  -53.6988 H         1 UNK         0.0786 
    120 H120       31.3040  -52.9583  -53.8984 H         1 UNK         0.0786 
    121 H121       31.9928  -52.8669  -52.2943 H         1 UNK         0.0786 
    122 H122       32.4286  -49.7951  -51.6069 H         1 UNK         0.3032 
    123 H123       34.4584  -50.0966  -50.2622 H         1 UNK         0.1094 
    124 H124       36.6085  -51.0123  -51.1272 H         1 UNK         0.0794 
    125 H125       36.9315  -49.5033  -51.9693 H         1 UNK         0.0794 
    126 H126       36.8652  -49.5410  -50.2068 H         1 UNK         0.0794 
    127 H127       35.5050  -47.6367  -51.3105 H         1 UNK         0.3016 
@<TRIPOS>BOND
     1    1    2 1    
     2    1   67 1    
     3    1   68 1    
     4    1   69 1    
     5    2    3 2    
     6    2    4 am   BACKBONE|DICT|INTERRES
     7    4    5 1    
     8    4   70 1    
     9    5    6 1    
    10    5   65 1    
    11    5   71 1    
    12    6    7 1    
    13    6   72 1    
    14    6   73 1    
    15    7    8 1    
    16    8    9 1    
    17    8   74 1    
    18    8   75 1    
    19    9   10 ar   
    20    9   14 ar   
    21   10   11 ar   
    22   10   76 1    
    23   11   12 ar   
    24   11   48 1    
    25   12   13 ar   
    26   12   77 1    
    27   13   14 ar   
    28   13   15 1    
    29   14   78 1    
    30   15   16 1    
    31   15   79 1    
    32   15   80 1    
    33   16   17 1    
    34   17   18 1    
    35   17   81 1    
    36   17   82 1    
    37   18   19 1    
    38   18   22 1    
    39   18   83 1    
    40   19   20 am   BACKBONE|DICT|INTERRES
    41   19   21 2    
    42   20   84 1    
    43   20   85 1    
    44   22   23 am   BACKBONE|DICT|INTERRES
    45   22   86 1    
    46   23   24 2    
    47   23   25 1    
    48   25   26 1    
    49   25   27 1    
    50   25   87 1    
    51   26   88 1    
    52   26   89 1    
    53   26   90 1    
    54   27   28 am   BACKBONE|DICT|INTERRES
    55   27   91 1    
    56   28   29 2    
    57   28   30 1    
    58   30   31 1    
    59   30   32 1    
    60   30   92 1    
    61   31   93 1    
    62   31   94 1    
    63   31   95 1    
    64   32   33 am   BACKBONE|DICT|INTERRES
    65   32   96 1    
    66   33   34 2    
    67   33   35 1    
    68   35   36 1    
    69   35   37 1    
    70   35   97 1    
    71   36   98 1    
    72   36   99 1    
    73   36  100 1    
    74   37   38 am   BACKBONE|DICT|INTERRES
    75   37  101 1    
    76   38   39 2    
    77   38   40 1    
    78   40   41 1    
    79   40   42 1    
    80   40  102 1    
    81   41  103 1    
    82   41  104 1    
    83   41  105 1    
    84   42   43 am   BACKBONE|DICT|INTERRES
    85   42  106 1    
    86   43   44 2    
    87   43   45 1    
    88   45   46 1    
    89   45   49 1    
    90   45  107 1    
    91   46   47 1    
    92   46  108 1    
    93   46  109 1    
    94   47   48 1    
    95   48  110 1    
    96   48  111 1    
    97   49   50 am   BACKBONE|DICT|INTERRES
    98   49  112 1    
    99   50   51 2    
   100   50   52 1    
   101   52   53 1    
   102   52   54 1    
   103   52  113 1    
   104   53  114 1    
   105   53  115 1    
   106   53  116 1    
   107   54   55 am   BACKBONE|DICT|INTERRES
   108   54  117 1    
   109   55   56 2    
   110   55   57 1    
   111   57   58 1    
   112   57   59 1    
   113   57  118 1    
   114   58  119 1    
   115   58  120 1    
   116   58  121 1    
   117   59   60 am   BACKBONE|DICT|INTERRES
   118   59  122 1    
   119   60   61 2    
   120   60   62 1    
   121   62   63 1    
   122   62   64 1    
   123   62  123 1    
   124   63  124 1    
   125   63  125 1    
   126   63  126 1    
   127   64   65 am   BACKBONE|DICT|INTERRES
   128   64  127 1    
   129   65   66 2    
@<TRIPOS>SUBSTRUCTURE
     1 UNK         1 GROUP             0       ****    0 ROOT    
