@<TRIPOS>MOLECULE
3R134
127   129    1
SMALL
USER_CHARGES


@<TRIPOS>ATOM
      1 CA         29.6491  -44.1570  -51.2474 C.3       0 UNK        -0.1968 
      2 C          30.8483  -45.0151  -50.8715 C.2       0 UNK         0.4852 
      3 O          30.9340  -45.4839  -49.7359 O.2       0 UNK        -0.5359 
      4 N          31.7735  -45.2331  -51.8145 N.am      1 UNK        -0.4300 
      5 CA         33.0704  -45.8931  -51.6095 C.3       1 UNK         0.0863 
      6 C6         34.1395  -45.3424  -52.5881 C.3       11 UNK        -0.0953 
      7 S7         34.3867  -43.5489  -52.3585 S.3       11 UNK        -0.2369 
      8 C8         34.8050  -42.9998  -54.0453 C.3       11 UNK         0.0226 
      9 C9         33.6448  -43.0221  -55.0400 C.ar      11 UNK        -0.0699 
     10 C10        33.8939  -43.4169  -56.3590 C.ar      11 UNK        -0.0804 
     11 C11        32.8780  -43.3800  -57.3162 C.ar      11 UNK        -0.0871 
     12 C12        31.6099  -42.9210  -56.9544 C.ar      11 UNK        -0.1008 
     13 C13        31.3214  -42.5857  -55.6301 C.ar      11 UNK        -0.0735 
     14 C14        32.3503  -42.6178  -54.6799 C.ar      11 UNK        -0.0945 
     15 C15        29.8997  -42.1969  -55.2343 C.3       11 UNK         0.0169 
     16 S16        28.7687  -43.6362  -55.2062 S.3       11 UNK        -0.2669 
     17 C17        28.2731  -43.7992  -56.9605 C.3       11 UNK        -0.0850 
     18 CA         26.7389  -43.9120  -57.1693 C.3       10 UNK         0.0855 
     19 C          26.3550  -43.7215  -58.6693 C.2       10 UNK         0.5543 
     20 N          25.6435  -44.6403  -59.3126 N.am      10 UNK        -0.7343 
     21 O          26.7055  -42.7052  -59.2636 O.2       10 UNK        -0.5027 
     22 N          26.1875  -45.1367  -56.5652 N.am      10 UNK        -0.4495 
     23 C          24.9230  -45.2611  -56.1415 C.2       10 UNK         0.4903 
     24 O          24.1145  -44.3310  -56.1330 O.2       10 UNK        -0.4860 
     25 CA         24.4875  -46.6572  -55.6493 C.3       9 UNK         0.0227 
     26 CB         22.9533  -46.8060  -55.5665 C.3       9 UNK        -0.1964 
     27 N          25.0643  -47.7762  -56.4088 N.am      9 UNK        -0.4231 
     28 C          24.9620  -48.0111  -57.7282 C.2       9 UNK         0.5014 
     29 O          24.4045  -47.2387  -58.5094 O.2       9 UNK        -0.5270 
     30 CA         25.5925  -49.3100  -58.2751 C.3       8 UNK         0.0284 
     31 CB         26.1902  -49.1052  -59.6798 C.3       8 UNK        -0.1977 
     32 N          26.6418  -49.8108  -57.3860 N.am      8 UNK        -0.4342 
     33 C          26.5532  -50.8826  -56.5835 C.2       8 UNK         0.5039 
     34 O          25.5960  -51.6569  -56.5789 O.2       8 UNK        -0.5547 
     35 CA         27.7071  -51.1094  -55.5812 C.3       7 UNK         0.0281 
     36 CB         28.7231  -52.1173  -56.1416 C.3       7 UNK        -0.1963 
     37 N          28.4090  -49.8741  -55.2213 N.am      7 UNK        -0.4444 
     38 C          27.8419  -48.8088  -54.6396 C.2       7 UNK         0.5104 
     39 O          26.7013  -48.8153  -54.1772 O.2       7 UNK        -0.5100 
     40 CA         28.6141  -47.4800  -54.6935 C.3       6 UNK         0.0396 
     41 CB         29.0915  -47.0363  -53.3086 C.3       6 UNK        -0.1801 
     42 N          29.7434  -47.4677  -55.6273 N.am      6 UNK        -0.4747 
     43 C          29.6750  -47.5652  -56.9607 C.2       6 UNK         0.5012 
     44 O          28.6126  -47.7159  -57.5639 O.2       6 UNK        -0.5003 
     45 CA         31.0008  -47.4867  -57.7514 C.3       5 UNK         0.0782 
     46 C46        31.3536  -46.0013  -58.0091 C.3       11 UNK        -0.0868 
     47 S47        32.9584  -45.7110  -58.8378 S.3       11 UNK        -0.2515 
     48 C48        33.1190  -43.8926  -58.7300 C.3       11 UNK         0.0199 
     49 N          32.1016  -48.2643  -57.1546 N.am      5 UNK        -0.4607 
     50 C          32.7635  -48.0280  -56.0140 C.2       4 UNK         0.5031 
     51 O          32.4549  -47.1585  -55.1977 O.2       4 UNK        -0.5119 
     52 CA         33.9607  -48.9389  -55.7256 C.3       4 UNK         0.0263 
     53 CB         35.2149  -48.1229  -55.3684 C.3       4 UNK        -0.1967 
     54 N          33.6255  -49.8398  -54.6268 N.am      4 UNK        -0.4237 
     55 C          32.9635  -50.9955  -54.7836 C.2       3 UNK         0.4908 
     56 O          32.5995  -51.4263  -55.8788 O.2       3 UNK        -0.5102 
     57 CA         32.6614  -51.8267  -53.5241 C.3       3 UNK         0.0241 
     58 CB         33.7185  -52.9281  -53.3422 C.3       3 UNK        -0.1971 
     59 N          32.5867  -51.0259  -52.3014 N.am      3 UNK        -0.4139 
     60 C          31.5721  -50.2076  -51.9945 C.2       2 UNK         0.5016 
     61 O          30.5700  -50.0771  -52.6962 O.2       2 UNK        -0.5319 
     62 CA         31.6840  -49.4019  -50.6850 C.3       2 UNK         0.0286 
     63 CB         32.7043  -49.9821  -49.6789 C.3       2 UNK        -0.1963 
     64 N          31.9603  -47.9788  -50.9184 N.am      2 UNK        -0.4790 
     65 C          32.9744  -47.4391  -51.6119 C.2       1 UNK         0.5024 
     66 O          33.8253  -48.1128  -52.1970 O.2       1 UNK        -0.4888 
     67 H67        29.5591  -43.3185  -50.5573 H         1 UNK         0.0892 
     68 H68        29.7371  -43.7528  -52.2556 H         1 UNK         0.0892 
     69 H69        28.7320  -44.7426  -51.1916 H         1 UNK         0.0892 
     70 H70        31.6359  -44.8599  -52.7430 H         1 UNK         0.3107 
     71 H71        33.4133  -45.6393  -50.6039 H         1 UNK         0.0773 
     72 H72        33.8512  -45.5428  -53.6209 H         1 UNK         0.0680 
     73 H73        35.1035  -45.8297  -52.4321 H         1 UNK         0.0680 
     74 H74        35.6335  -43.6116  -54.4061 H         1 UNK         0.0650 
     75 H75        35.1813  -41.9778  -53.9878 H         1 UNK         0.0650 
     76 H76        34.8793  -43.7596  -56.6440 H         1 UNK         0.1397 
     77 H77        30.8321  -42.8900  -57.7015 H         1 UNK         0.1363 
     78 H78        32.1447  -42.3226  -53.6604 H         1 UNK         0.1355 
     79 H79        29.5185  -41.4298  -55.9097 H         1 UNK         0.0707 
     80 H80        29.9008  -41.7464  -54.2407 H         1 UNK         0.0707 
     81 H81        28.6465  -42.9305  -57.5029 H         1 UNK         0.1034 
     82 H82        28.7759  -44.6656  -57.3877 H         1 UNK         0.1034 
     83 H83        26.2926  -43.0588  -56.6547 H         1 UNK         0.0482 
     84 H84        25.3071  -45.4762  -58.8471 H         1 UNK         0.3460 
     85 H85        25.4083  -44.4844  -60.2795 H         1 UNK         0.3460 
     86 H86        26.7828  -45.9512  -56.5824 H         1 UNK         0.2989 
     87 H87        24.8786  -46.7482  -54.6352 H         1 UNK         0.0559 
     88 H88        22.4829  -46.6807  -56.5425 H         1 UNK         0.0848 
     89 H89        22.5206  -46.0603  -54.8983 H         1 UNK         0.0848 
     90 H90        22.6695  -47.7851  -55.1806 H         1 UNK         0.0848 
     91 H91        25.5594  -48.4554  -55.8405 H         1 UNK         0.3144 
     92 H92        24.7857  -50.0410  -58.3551 H         1 UNK         0.0727 
     93 H93        26.9543  -48.3268  -59.6832 H         1 UNK         0.0790 
     94 H94        25.4217  -48.8112  -60.3959 H         1 UNK         0.0790 
     95 H95        26.6442  -50.0226  -60.0547 H         1 UNK         0.0790 
     96 H96        27.4659  -49.2168  -57.3269 H         1 UNK         0.3215 
     97 H97        27.2741  -51.5233  -54.6680 H         1 UNK         0.0863 
     98 H98        29.5069  -52.3364  -55.4158 H         1 UNK         0.0808 
     99 H99        29.2014  -51.7479  -57.0497 H         1 UNK         0.0808 
    100 H100       28.2382  -53.0627  -56.3893 H         1 UNK         0.0808 
    101 H101       29.3649  -49.7804  -55.5320 H         1 UNK         0.3118 
    102 H102       27.9025  -46.7306  -55.0410 H         1 UNK         0.0546 
    103 H103       28.2887  -47.0882  -52.5720 H         1 UNK         0.0828 
    104 H104       29.4336  -46.0048  -53.3482 H         1 UNK         0.0828 
    105 H105       29.9168  -47.6454  -52.9465 H         1 UNK         0.0828 
    106 H106       30.6722  -47.3297  -55.2294 H         1 UNK         0.3005 
    107 H107       30.8060  -47.9491  -58.7206 H         1 UNK         0.1257 
    108 H108       31.3674  -45.4918  -57.0466 H         1 UNK         0.0775 
    109 H109       30.5786  -45.5225  -58.6096 H         1 UNK         0.0775 
    110 H110       34.1154  -43.6019  -59.0657 H         1 UNK         0.0840 
    111 H111       32.4173  -43.4313  -59.4269 H         1 UNK         0.0840 
    112 H112       32.4115  -49.0462  -57.7146 H         1 UNK         0.2987 
    113 H113       34.1942  -49.5229  -56.6188 H         1 UNK         0.0785 
    114 H114       35.4756  -47.4392  -56.1773 H         1 UNK         0.0798 
    115 H115       36.0743  -48.7715  -55.1992 H         1 UNK         0.0798 
    116 H116       35.0695  -47.5216  -54.4716 H         1 UNK         0.0798 
    117 H117       33.8014  -49.4867  -53.6909 H         1 UNK         0.3079 
    118 H118       31.6925  -52.3077  -53.6766 H         1 UNK         0.0794 
    119 H119       34.7122  -52.5113  -53.1734 H         1 UNK         0.0786 
    120 H120       33.7774  -53.5622  -54.2281 H         1 UNK         0.0786 
    121 H121       33.4767  -53.5754  -52.4988 H         1 UNK         0.0786 
    122 H122       33.3806  -51.0605  -51.6785 H         1 UNK         0.3032 
    123 H123       30.6985  -49.4546  -50.2189 H         1 UNK         0.1094 
    124 H124       32.6452  -49.4603  -48.7236 H         1 UNK         0.0794 
    125 H125       32.5051  -51.0355  -49.4763 H         1 UNK         0.0794 
    126 H126       33.7328  -49.8975  -50.0315 H         1 UNK         0.0794 
    127 H127       31.3352  -47.3235  -50.4584 H         1 UNK         0.3016 
@<TRIPOS>BOND
     1    1    2 1    
     2    1   67 1    
     3    1   68 1    
     4    1   69 1    
     5    2    3 2    
     6    2    4 am   BACKBONE|DICT|INTERRES
     7    4    5 1    
     8    4   70 1    
     9    5    6 1    
    10    5   65 1    
    11    5   71 1    
    12    6    7 1    
    13    6   72 1    
    14    6   73 1    
    15    7    8 1    
    16    8    9 1    
    17    8   74 1    
    18    8   75 1    
    19    9   10 ar   
    20    9   14 ar   
    21   10   11 ar   
    22   10   76 1    
    23   11   12 ar   
    24   11   48 1    
    25   12   13 ar   
    26   12   77 1    
    27   13   14 ar   
    28   13   15 1    
    29   14   78 1    
    30   15   16 1    
    31   15   79 1    
    32   15   80 1    
    33   16   17 1    
    34   17   18 1    
    35   17   81 1    
    36   17   82 1    
    37   18   19 1    
    38   18   22 1    
    39   18   83 1    
    40   19   20 am   BACKBONE|DICT|INTERRES
    41   19   21 2    
    42   20   84 1    
    43   20   85 1    
    44   22   23 am   BACKBONE|DICT|INTERRES
    45   22   86 1    
    46   23   24 2    
    47   23   25 1    
    48   25   26 1    
    49   25   27 1    
    50   25   87 1    
    51   26   88 1    
    52   26   89 1    
    53   26   90 1    
    54   27   28 am   BACKBONE|DICT|INTERRES
    55   27   91 1    
    56   28   29 2    
    57   28   30 1    
    58   30   31 1    
    59   30   32 1    
    60   30   92 1    
    61   31   93 1    
    62   31   94 1    
    63   31   95 1    
    64   32   33 am   BACKBONE|DICT|INTERRES
    65   32   96 1    
    66   33   34 2    
    67   33   35 1    
    68   35   36 1    
    69   35   37 1    
    70   35   97 1    
    71   36   98 1    
    72   36   99 1    
    73   36  100 1    
    74   37   38 am   BACKBONE|DICT|INTERRES
    75   37  101 1    
    76   38   39 2    
    77   38   40 1    
    78   40   41 1    
    79   40   42 1    
    80   40  102 1    
    81   41  103 1    
    82   41  104 1    
    83   41  105 1    
    84   42   43 am   BACKBONE|DICT|INTERRES
    85   42  106 1    
    86   43   44 2    
    87   43   45 1    
    88   45   46 1    
    89   45   49 1    
    90   45  107 1    
    91   46   47 1    
    92   46  108 1    
    93   46  109 1    
    94   47   48 1    
    95   48  110 1    
    96   48  111 1    
    97   49   50 am   BACKBONE|DICT|INTERRES
    98   49  112 1    
    99   50   51 2    
   100   50   52 1    
   101   52   53 1    
   102   52   54 1    
   103   52  113 1    
   104   53  114 1    
   105   53  115 1    
   106   53  116 1    
   107   54   55 am   BACKBONE|DICT|INTERRES
   108   54  117 1    
   109   55   56 2    
   110   55   57 1    
   111   57   58 1    
   112   57   59 1    
   113   57  118 1    
   114   58  119 1    
   115   58  120 1    
   116   58  121 1    
   117   59   60 am   BACKBONE|DICT|INTERRES
   118   59  122 1    
   119   60   61 2    
   120   60   62 1    
   121   62   63 1    
   122   62   64 1    
   123   62  123 1    
   124   63  124 1    
   125   63  125 1    
   126   63  126 1    
   127   64   65 am   BACKBONE|DICT|INTERRES
   128   64  127 1    
   129   65   66 2    
@<TRIPOS>SUBSTRUCTURE
     1 UNK         1 GROUP             0       ****    0 ROOT    
