@<TRIPOS>MOLECULE
3R134
127   129    1
SMALL
USER_CHARGES


@<TRIPOS>ATOM
      1 CA         38.8190  -45.4953  -54.4666 C.3       0 UNK        -0.1968 
      2 C          37.4128  -46.0694  -54.3813 C.2       0 UNK         0.4852 
      3 O          37.1527  -47.1399  -54.9343 O.2       0 UNK        -0.5359 
      4 N          36.5035  -45.3775  -53.6820 N.am      1 UNK        -0.4300 
      5 CA         35.0918  -45.7431  -53.5009 C.3       1 UNK         0.0863 
      6 C6         34.2203  -44.5035  -53.1717 C.3       11 UNK        -0.0953 
      7 S7         34.2423  -43.2680  -54.5112 S.3       11 UNK        -0.2369 
      8 C8         32.9656  -42.1043  -53.9380 C.3       11 UNK         0.0226 
      9 C9         31.5662  -42.6909  -54.0543 C.ar      11 UNK        -0.0699 
     10 C10        30.8818  -43.1262  -52.9156 C.ar      11 UNK        -0.0804 
     11 C11        29.5949  -43.6645  -53.0202 C.ar      11 UNK        -0.0871 
     12 C12        28.9930  -43.7660  -54.2782 C.ar      11 UNK        -0.1008 
     13 C13        29.6630  -43.3186  -55.4216 C.ar      11 UNK        -0.0735 
     14 C14        30.9485  -42.7835  -55.3040 C.ar      11 UNK        -0.0945 
     15 C15        28.9957  -43.4028  -56.7833 C.3       11 UNK         0.0169 
     16 S16        27.7687  -42.0741  -56.9832 S.3       11 UNK        -0.2669 
     17 C17        27.4689  -42.0797  -58.7847 C.3       11 UNK        -0.0850 
     18 CA         26.3685  -43.0973  -59.2055 C.3       10 UNK         0.0855 
     19 C          25.7388  -42.7963  -60.6020 C.2       10 UNK         0.5543 
     20 N          25.2248  -43.7923  -61.3142 N.am      10 UNK        -0.7343 
     21 O          25.6814  -41.6475  -61.0344 O.2       10 UNK        -0.5027 
     22 N          26.8036  -44.4934  -59.0207 N.am      10 UNK        -0.4495 
     23 C          27.7614  -45.1264  -59.7148 C.2       10 UNK         0.4903 
     24 O          28.4105  -44.5977  -60.6179 O.2       10 UNK        -0.4860 
     25 CA         28.0754  -46.5898  -59.3413 C.3       9 UNK         0.0227 
     26 CB         29.5613  -46.7567  -58.9797 C.3       9 UNK        -0.1964 
     27 N          27.2654  -47.1390  -58.2493 N.am      9 UNK        -0.4231 
     28 C          25.9691  -47.4696  -58.3306 C.2       9 UNK         0.5014 
     29 O          25.2684  -47.2575  -59.3223 O.2       9 UNK        -0.5270 
     30 CA         25.3808  -48.1609  -57.0874 C.3       8 UNK         0.0284 
     31 CB         23.9155  -48.6104  -57.2697 C.3       8 UNK        -0.1977 
     32 N          26.2273  -49.2752  -56.6486 N.am      8 UNK        -0.4342 
     33 C          26.5591  -50.3771  -57.3411 C.2       8 UNK         0.5039 
     34 O          26.1116  -50.6584  -58.4537 O.2       8 UNK        -0.5547 
     35 CA         27.5886  -51.3249  -56.6989 C.3       7 UNK         0.0281 
     36 CB         28.9549  -51.1626  -57.3863 C.3       7 UNK        -0.1963 
     37 N          27.7573  -51.1165  -55.2594 N.am      7 UNK        -0.4444 
     38 C          26.8500  -51.4287  -54.3246 C.2       7 UNK         0.5104 
     39 O          25.7817  -51.9925  -54.5623 O.2       7 UNK        -0.5100 
     40 CA         27.1812  -51.0075  -52.8849 C.3       6 UNK         0.0396 
     41 CB         28.0772  -52.0565  -52.2068 C.3       6 UNK        -0.1801 
     42 N          27.8295  -49.6949  -52.8181 N.am      6 UNK        -0.4747 
     43 C          27.2292  -48.5196  -53.0637 C.2       6 UNK         0.5012 
     44 O          26.0502  -48.4053  -53.3973 O.2       6 UNK        -0.5003 
     45 CA         28.1141  -47.2647  -52.9314 C.3       5 UNK         0.0782 
     46 C46        28.2601  -46.8677  -51.4377 C.3       11 UNK        -0.0868 
     47 S47        29.5617  -45.6365  -51.0862 S.3       11 UNK        -0.2515 
     48 C48        28.8548  -44.1041  -51.7650 C.3       11 UNK         0.0199 
     49 N          29.4021  -47.4572  -53.5976 N.am      5 UNK        -0.4607 
     50 C          29.5757  -47.5569  -54.9210 C.2       4 UNK         0.5031 
     51 O          28.6640  -47.4832  -55.7476 O.2       4 UNK        -0.5119 
     52 CA         31.0157  -47.8143  -55.3952 C.3       4 UNK         0.0263 
     53 CB         31.7591  -46.4805  -55.5739 C.3       4 UNK        -0.1967 
     54 N          31.7908  -48.6880  -54.5017 N.am      4 UNK        -0.4237 
     55 C          31.4570  -49.9451  -54.1662 C.2       3 UNK         0.4908 
     56 O          30.4122  -50.4842  -54.5292 O.2       3 UNK        -0.5102 
     57 CA         32.4220  -50.7412  -53.2721 C.3       3 UNK         0.0241 
     58 CB         32.7257  -52.1268  -53.8717 C.3       3 UNK        -0.1971 
     59 N          33.6825  -50.0351  -53.0209 N.am      3 UNK        -0.4139 
     60 C          34.2821  -49.9433  -51.8263 C.2       2 UNK         0.5016 
     61 O          33.8366  -50.4350  -50.7886 O.2       2 UNK        -0.5319 
     62 CA         35.6074  -49.1648  -51.7801 C.3       2 UNK         0.0286 
     63 CB         36.7889  -50.0824  -52.1343 C.3       2 UNK        -0.1963 
     64 N          35.6178  -47.9960  -52.6647 N.am      2 UNK        -0.4790 
     65 C          34.9229  -46.8701  -52.4546 C.2       1 UNK         0.5024 
     66 O          34.1868  -46.7080  -51.4804 O.2       1 UNK        -0.4888 
     67 H67        39.5358  -46.1935  -54.0354 H         1 UNK         0.0892 
     68 H68        39.0915  -45.3258  -55.5079 H         1 UNK         0.0892 
     69 H69        38.9057  -44.5477  -53.9351 H         1 UNK         0.0892 
     70 H70        36.7812  -44.5141  -53.2374 H         1 UNK         0.3107 
     71 H71        34.7274  -46.1518  -54.4457 H         1 UNK         0.0773 
     72 H72        34.5547  -44.0267  -52.2485 H         1 UNK         0.0680 
     73 H73        33.1844  -44.8024  -53.0060 H         1 UNK         0.0680 
     74 H74        33.0253  -41.1948  -54.5375 H         1 UNK         0.0650 
     75 H75        33.1806  -41.8072  -52.9103 H         1 UNK         0.0650 
     76 H76        31.3508  -43.0498  -51.9440 H         1 UNK         0.1397 
     77 H77        27.9954  -44.1723  -54.3713 H         1 UNK         0.1363 
     78 H78        31.4722  -42.4379  -56.1849 H         1 UNK         0.1355 
     79 H79        29.7397  -43.3451  -57.5794 H         1 UNK         0.0707 
     80 H80        28.5067  -44.3723  -56.8795 H         1 UNK         0.0707 
     81 H81        27.1692  -41.0623  -59.0413 H         1 UNK         0.1034 
     82 H82        28.4009  -42.2531  -59.3242 H         1 UNK         0.1034 
     83 H83        25.5330  -42.9650  -58.5172 H         1 UNK         0.0482 
     84 H84        25.2524  -44.7366  -60.9611 H         1 UNK         0.3460 
     85 H85        24.8078  -43.5977  -62.2108 H         1 UNK         0.3460 
     86 H86        26.3041  -45.0183  -58.3191 H         1 UNK         0.2989 
     87 H87        27.8787  -47.1897  -60.2321 H         1 UNK         0.0559 
     88 H88        29.8274  -46.1641  -58.1055 H         1 UNK         0.0848 
     89 H89        30.2064  -46.4366  -59.7990 H         1 UNK         0.0848 
     90 H90        29.8050  -47.7978  -58.7671 H         1 UNK         0.0848 
     91 H91        27.7534  -47.3216  -57.3732 H         1 UNK         0.3144 
     92 H92        25.4027  -47.4240  -56.2829 H         1 UNK         0.0727 
     93 H93        23.2718  -47.7579  -57.4896 H         1 UNK         0.0790 
     94 H94        23.5318  -49.0824  -56.3652 H         1 UNK         0.0790 
     95 H95        23.8057  -49.3194  -58.0908 H         1 UNK         0.0790 
     96 H96        26.6801  -49.1443  -55.7536 H         1 UNK         0.3215 
     97 H97        27.2392  -52.3473  -56.8578 H         1 UNK         0.0863 
     98 H98        29.6870  -51.8642  -56.9859 H         1 UNK         0.0808 
     99 H99        29.3516  -50.1548  -57.2563 H         1 UNK         0.0808 
    100 H100       28.8795  -51.3485  -58.4585 H         1 UNK         0.0808 
    101 H101       28.6494  -50.7260  -54.9581 H         1 UNK         0.3118 
    102 H102       26.2429  -50.9505  -52.3289 H         1 UNK         0.0546 
    103 H103       29.0425  -52.1506  -52.7061 H         1 UNK         0.0828 
    104 H104       27.6056  -53.0401  -52.2236 H         1 UNK         0.0828 
    105 H105       28.2621  -51.8056  -51.1624 H         1 UNK         0.0828 
    106 H106       28.8170  -49.6908  -52.6080 H         1 UNK         0.3005 
    107 H107       27.5998  -46.4526  -53.4495 H         1 UNK         0.1257 
    108 H108       28.5027  -47.7421  -50.8302 H         1 UNK         0.0775 
    109 H109       27.3097  -46.4951  -51.0507 H         1 UNK         0.0775 
    110 H110       27.7890  -44.2283  -51.9619 H         1 UNK         0.0840 
    111 H111       28.9317  -43.3192  -51.0112 H         1 UNK         0.0840 
    112 H112       30.2124  -47.4915  -52.9973 H         1 UNK         0.2987 
    113 H113       30.9547  -48.3086  -56.3667 H         1 UNK         0.0785 
    114 H114       32.7525  -46.6280  -55.9970 H         1 UNK         0.0798 
    115 H115       31.8665  -45.9485  -54.6284 H         1 UNK         0.0798 
    116 H116       31.2196  -45.8162  -56.2489 H         1 UNK         0.0798 
    117 H117       32.6369  -48.3000  -54.1170 H         1 UNK         0.3079 
    118 H118       31.8885  -50.8896  -52.3309 H         1 UNK         0.0794 
    119 H119       31.8101  -52.6980  -54.0322 H         1 UNK         0.0786 
    120 H120       33.3577  -52.7154  -53.2064 H         1 UNK         0.0786 
    121 H121       33.2340  -52.0465  -54.8331 H         1 UNK         0.0786 
    122 H122       34.1565  -49.6434  -53.8226 H         1 UNK         0.3032 
    123 H123       35.7439  -48.8152  -50.7539 H         1 UNK         0.1094 
    124 H124       37.7410  -49.5638  -52.0200 H         1 UNK         0.0794 
    125 H125       36.8158  -50.9544  -51.4791 H         1 UNK         0.0794 
    126 H126       36.7269  -50.4469  -53.1605 H         1 UNK         0.0794 
    127 H127       36.2260  -48.0228  -53.4801 H         1 UNK         0.3016 
@<TRIPOS>BOND
     1    1    2 1    
     2    1   67 1    
     3    1   68 1    
     4    1   69 1    
     5    2    3 2    
     6    2    4 am   BACKBONE|DICT|INTERRES
     7    4    5 1    
     8    4   70 1    
     9    5    6 1    
    10    5   65 1    
    11    5   71 1    
    12    6    7 1    
    13    6   72 1    
    14    6   73 1    
    15    7    8 1    
    16    8    9 1    
    17    8   74 1    
    18    8   75 1    
    19    9   10 ar   
    20    9   14 ar   
    21   10   11 ar   
    22   10   76 1    
    23   11   12 ar   
    24   11   48 1    
    25   12   13 ar   
    26   12   77 1    
    27   13   14 ar   
    28   13   15 1    
    29   14   78 1    
    30   15   16 1    
    31   15   79 1    
    32   15   80 1    
    33   16   17 1    
    34   17   18 1    
    35   17   81 1    
    36   17   82 1    
    37   18   19 1    
    38   18   22 1    
    39   18   83 1    
    40   19   20 am   BACKBONE|DICT|INTERRES
    41   19   21 2    
    42   20   84 1    
    43   20   85 1    
    44   22   23 am   BACKBONE|DICT|INTERRES
    45   22   86 1    
    46   23   24 2    
    47   23   25 1    
    48   25   26 1    
    49   25   27 1    
    50   25   87 1    
    51   26   88 1    
    52   26   89 1    
    53   26   90 1    
    54   27   28 am   BACKBONE|DICT|INTERRES
    55   27   91 1    
    56   28   29 2    
    57   28   30 1    
    58   30   31 1    
    59   30   32 1    
    60   30   92 1    
    61   31   93 1    
    62   31   94 1    
    63   31   95 1    
    64   32   33 am   BACKBONE|DICT|INTERRES
    65   32   96 1    
    66   33   34 2    
    67   33   35 1    
    68   35   36 1    
    69   35   37 1    
    70   35   97 1    
    71   36   98 1    
    72   36   99 1    
    73   36  100 1    
    74   37   38 am   BACKBONE|DICT|INTERRES
    75   37  101 1    
    76   38   39 2    
    77   38   40 1    
    78   40   41 1    
    79   40   42 1    
    80   40  102 1    
    81   41  103 1    
    82   41  104 1    
    83   41  105 1    
    84   42   43 am   BACKBONE|DICT|INTERRES
    85   42  106 1    
    86   43   44 2    
    87   43   45 1    
    88   45   46 1    
    89   45   49 1    
    90   45  107 1    
    91   46   47 1    
    92   46  108 1    
    93   46  109 1    
    94   47   48 1    
    95   48  110 1    
    96   48  111 1    
    97   49   50 am   BACKBONE|DICT|INTERRES
    98   49  112 1    
    99   50   51 2    
   100   50   52 1    
   101   52   53 1    
   102   52   54 1    
   103   52  113 1    
   104   53  114 1    
   105   53  115 1    
   106   53  116 1    
   107   54   55 am   BACKBONE|DICT|INTERRES
   108   54  117 1    
   109   55   56 2    
   110   55   57 1    
   111   57   58 1    
   112   57   59 1    
   113   57  118 1    
   114   58  119 1    
   115   58  120 1    
   116   58  121 1    
   117   59   60 am   BACKBONE|DICT|INTERRES
   118   59  122 1    
   119   60   61 2    
   120   60   62 1    
   121   62   63 1    
   122   62   64 1    
   123   62  123 1    
   124   63  124 1    
   125   63  125 1    
   126   63  126 1    
   127   64   65 am   BACKBONE|DICT|INTERRES
   128   64  127 1    
   129   65   66 2    
@<TRIPOS>SUBSTRUCTURE
     1 UNK         1 GROUP             0       ****    0 ROOT    
