@<TRIPOS>MOLECULE
3R134
127   129    1
SMALL
USER_CHARGES


@<TRIPOS>ATOM
      1 CA         38.6783  -44.7606  -50.0177 C.3       0 UNK        -0.1968 
      2 C          38.0697  -44.6410  -51.4072 C.2       0 UNK         0.4852 
      3 O          38.8049  -44.5671  -52.3925 O.2       0 UNK        -0.5359 
      4 N          36.7329  -44.6270  -51.4936 N.am      1 UNK        -0.4300 
      5 CA         35.9650  -44.5140  -52.7410 C.3       1 UNK         0.0863 
      6 C6         34.5936  -43.8240  -52.5135 C.3       11 UNK        -0.0953 
      7 S7         33.5505  -44.5763  -51.2130 S.3       11 UNK        -0.2369 
      8 C8         32.4641  -45.6991  -52.1493 C.3       11 UNK         0.0226 
      9 C9         31.4758  -44.9650  -53.0475 C.ar      11 UNK        -0.0699 
     10 C10        30.2536  -44.5060  -52.5416 C.ar      11 UNK        -0.0804 
     11 C11        29.3347  -43.8674  -53.3829 C.ar      11 UNK        -0.0871 
     12 C12        29.6648  -43.6553  -54.7248 C.ar      11 UNK        -0.1008 
     13 C13        30.8655  -44.1370  -55.2469 C.ar      11 UNK        -0.0735 
     14 C14        31.7625  -44.7972  -54.4055 C.ar      11 UNK        -0.0945 
     15 C15        31.1865  -43.9467  -56.7199 C.3       11 UNK         0.0169 
     16 S16        30.2474  -45.1176  -57.7555 S.3       11 UNK        -0.2669 
     17 C17        29.3509  -44.0058  -58.8956 C.3       11 UNK        -0.0850 
     18 CA         27.8336  -43.9308  -58.5876 C.3       10 UNK         0.0855 
     19 C          27.1644  -42.8210  -59.4447 C.2       10 UNK         0.5543 
     20 N          27.0380  -41.6149  -58.9087 N.am      10 UNK        -0.7343 
     21 O          26.8056  -43.0318  -60.6018 O.2       10 UNK        -0.5027 
     22 N          27.1966  -45.2426  -58.7663 N.am      10 UNK        -0.4495 
     23 C          25.9253  -45.5486  -58.4879 C.2       10 UNK         0.4903 
     24 O          25.1366  -44.7699  -57.9524 O.2       10 UNK        -0.4860 
     25 CA         25.4496  -46.9721  -58.8372 C.3       9 UNK         0.0227 
     26 CB         24.9543  -47.0508  -60.2949 C.3       9 UNK        -0.1964 
     27 N          26.4216  -48.0346  -58.5251 N.am      9 UNK        -0.4231 
     28 C          27.5975  -48.2997  -59.1150 C.2       9 UNK         0.5014 
     29 O          28.0370  -47.6552  -60.0685 O.2       9 UNK        -0.5270 
     30 CA         28.4608  -49.4351  -58.5353 C.3       8 UNK         0.0284 
     31 CB         29.8373  -48.8992  -58.1024 C.3       8 UNK        -0.1977 
     32 N          27.8569  -50.1266  -57.3933 N.am      8 UNK        -0.4342 
     33 C          27.0185  -51.1679  -57.4737 C.2       8 UNK         0.5039 
     34 O          26.5719  -51.6029  -58.5352 O.2       8 UNK        -0.5547 
     35 CA         26.6159  -51.8431  -56.1536 C.3       7 UNK         0.0281 
     36 CB         27.7512  -52.7509  -55.6499 C.3       7 UNK        -0.1963 
     37 N          26.2946  -50.8571  -55.1197 N.am      7 UNK        -0.4444 
     38 C          25.0937  -50.7105  -54.5415 C.2       7 UNK         0.5104 
     39 O          24.1203  -51.4229  -54.7905 O.2       7 UNK        -0.5100 
     40 CA         24.9376  -49.5759  -53.5058 C.3       6 UNK         0.0396 
     41 CB         25.1085  -50.1274  -52.0815 C.3       6 UNK        -0.1801 
     42 N          25.8658  -48.4579  -53.6990 N.am      6 UNK        -0.4747 
     43 C          25.9146  -47.6788  -54.7894 C.2       6 UNK         0.5012 
     44 O          25.1073  -47.7643  -55.7127 O.2       6 UNK        -0.5003 
     45 CA         27.0883  -46.6815  -54.9107 C.3       5 UNK         0.0782 
     46 C46        26.6215  -45.2308  -54.5996 C.3       11 UNK        -0.0868 
     47 S47        26.7467  -44.7570  -52.8322 S.3       11 UNK        -0.2515 
     48 C48        27.9809  -43.4094  -52.8551 C.3       11 UNK         0.0199 
     49 N          28.2856  -47.0641  -54.1469 N.am      5 UNK        -0.4607 
     50 C          28.9429  -48.2286  -54.2043 C.2       4 UNK         0.5031 
     51 O          28.6376  -49.1602  -54.9512 O.2       4 UNK        -0.5119 
     52 CA         30.0411  -48.4247  -53.1548 C.3       4 UNK         0.0263 
     53 CB         29.4368  -48.9877  -51.8582 C.3       4 UNK        -0.1967 
     54 N          31.1118  -49.3111  -53.6056 N.am      4 UNK        -0.4237 
     55 C          32.0156  -48.9973  -54.5413 C.2       3 UNK         0.4908 
     56 O          32.0149  -47.9489  -55.1868 O.2       3 UNK        -0.5102 
     57 CA         33.1309  -50.0279  -54.7810 C.3       3 UNK         0.0241 
     58 CB         33.0043  -50.6567  -56.1786 C.3       3 UNK        -0.1971 
     59 N          34.4592  -49.4256  -54.6315 N.am      3 UNK        -0.4139 
     60 C          34.9435  -48.9007  -53.4958 C.2       2 UNK         0.5016 
     61 O          34.3298  -48.9022  -52.4264 O.2       2 UNK        -0.5319 
     62 CA         36.3669  -48.3107  -53.5215 C.3       2 UNK         0.0286 
     63 CB         37.0840  -48.3965  -54.8902 C.3       2 UNK        -0.1963 
     64 N          36.3900  -46.9440  -52.9842 N.am      2 UNK        -0.4790 
     65 C          35.8412  -45.8437  -53.5247 C.2       1 UNK         0.5024 
     66 O          35.2617  -45.8385  -54.6111 O.2       1 UNK        -0.4888 
     67 H67        37.9156  -44.8232  -49.2418 H         1 UNK         0.0892 
     68 H68        39.2997  -45.6536  -49.9553 H         1 UNK         0.0892 
     69 H69        39.3047  -43.8942  -49.8073 H         1 UNK         0.0892 
     70 H70        36.1741  -44.6933  -50.6536 H         1 UNK         0.3107 
     71 H71        36.5261  -43.8540  -53.4065 H         1 UNK         0.0773 
     72 H72        34.0391  -43.7375  -53.4468 H         1 UNK         0.0680 
     73 H73        34.7732  -42.7928  -52.2060 H         1 UNK         0.0680 
     74 H74        31.9186  -46.3151  -51.4334 H         1 UNK         0.0650 
     75 H75        33.0685  -46.3911  -52.7366 H         1 UNK         0.0650 
     76 H76        30.0128  -44.6589  -51.4982 H         1 UNK         0.1397 
     77 H77        28.9746  -43.1408  -55.3785 H         1 UNK         0.1363 
     78 H78        32.6857  -45.1892  -54.8106 H         1 UNK         0.1355 
     79 H79        30.9782  -42.9129  -56.9962 H         1 UNK         0.0707 
     80 H80        32.2517  -44.0985  -56.9013 H         1 UNK         0.0707 
     81 H81        29.8007  -43.0120  -58.8710 H         1 UNK         0.1034 
     82 H82        29.5088  -44.3685  -59.9132 H         1 UNK         0.1034 
     83 H83        27.7118  -43.6605  -57.5371 H         1 UNK         0.0482 
     84 H84        27.3376  -41.4267  -57.9649 H         1 UNK         0.3460 
     85 H85        26.6217  -40.8779  -59.4564 H         1 UNK         0.3460 
     86 H86        27.7489  -45.9493  -59.2429 H         1 UNK         0.2989 
     87 H87        24.5855  -47.1744  -58.2033 H         1 UNK         0.0559 
     88 H88        25.7410  -46.8117  -61.0109 H         1 UNK         0.0848 
     89 H89        24.1421  -46.3429  -60.4649 H         1 UNK         0.0848 
     90 H90        24.5737  -48.0441  -60.5322 H         1 UNK         0.0848 
     91 H91        26.1711  -48.6065  -57.7296 H         1 UNK         0.3144 
     92 H92        28.6197  -50.1557  -59.3402 H         1 UNK         0.0727 
     93 H93        29.7514  -48.1566  -57.3080 H         1 UNK         0.0790 
     94 H94        30.3576  -48.4230  -58.9345 H         1 UNK         0.0790 
     95 H95        30.4793  -49.7010  -57.7389 H         1 UNK         0.0790 
     96 H96        28.1842  -49.8257  -56.4741 H         1 UNK         0.3215 
     97 H97        25.7492  -52.4734  -56.3644 H         1 UNK         0.0863 
     98 H98        27.4511  -53.2969  -54.7555 H         1 UNK         0.0808 
     99 H99        28.6499  -52.1818  -55.4075 H         1 UNK         0.0808 
    100 H100       28.0248  -53.4901  -56.4041 H         1 UNK         0.0808 
    101 H101       27.0374  -50.2143  -54.8609 H         1 UNK         0.3118 
    102 H102       23.9232  -49.1834  -53.6016 H         1 UNK         0.0546 
    103 H103       26.1146  -50.5152  -51.9160 H         1 UNK         0.0828 
    104 H104       24.4102  -50.9441  -51.8931 H         1 UNK         0.0828 
    105 H105       24.9151  -49.3602  -51.3316 H         1 UNK         0.0828 
    106 H106       26.5571  -48.3081  -52.9791 H         1 UNK         0.3005 
    107 H107       27.3855  -46.7104  -55.9612 H         1 UNK         0.1257 
    108 H108       25.5919  -45.0654  -54.9249 H         1 UNK         0.0775 
    109 H109       27.1977  -44.5348  -55.2042 H         1 UNK         0.0775 
    110 H110       27.5969  -42.5817  -53.4536 H         1 UNK         0.0840 
    111 H111       28.0962  -43.0199  -51.8425 H         1 UNK         0.0840 
    112 H112       28.6046  -46.3583  -53.4972 H         1 UNK         0.2987 
    113 H113       30.4809  -47.4545  -52.9396 H         1 UNK         0.0785 
    114 H114       28.6668  -48.3245  -51.4615 H         1 UNK         0.0798 
    115 H115       30.1950  -49.0956  -51.0821 H         1 UNK         0.0798 
    116 H116       28.9772  -49.9643  -52.0172 H         1 UNK         0.0798 
    117 H117       31.1745  -50.2086  -53.1483 H         1 UNK         0.3079 
    118 H118       33.0461  -50.8254  -54.0397 H         1 UNK         0.0794 
    119 H119       32.0340  -51.1404  -56.3000 H         1 UNK         0.0786 
    120 H120       33.7675  -51.4173  -56.3445 H         1 UNK         0.0786 
    121 H121       33.0963  -49.9086  -56.9674 H         1 UNK         0.0786 
    122 H122       35.0167  -49.3474  -55.4690 H         1 UNK         0.3032 
    123 H123       36.9438  -48.9178  -52.8217 H         1 UNK         0.1094 
    124 H124       38.0889  -47.9781  -54.8293 H         1 UNK         0.0794 
    125 H125       37.1937  -49.4326  -55.2133 H         1 UNK         0.0794 
    126 H126       36.5531  -47.8585  -55.6761 H         1 UNK         0.0794 
    127 H127       36.8160  -46.8432  -52.0740 H         1 UNK         0.3016 
@<TRIPOS>BOND
     1    1    2 1    
     2    1   67 1    
     3    1   68 1    
     4    1   69 1    
     5    2    3 2    
     6    2    4 am   BACKBONE|DICT|INTERRES
     7    4    5 1    
     8    4   70 1    
     9    5    6 1    
    10    5   65 1    
    11    5   71 1    
    12    6    7 1    
    13    6   72 1    
    14    6   73 1    
    15    7    8 1    
    16    8    9 1    
    17    8   74 1    
    18    8   75 1    
    19    9   10 ar   
    20    9   14 ar   
    21   10   11 ar   
    22   10   76 1    
    23   11   12 ar   
    24   11   48 1    
    25   12   13 ar   
    26   12   77 1    
    27   13   14 ar   
    28   13   15 1    
    29   14   78 1    
    30   15   16 1    
    31   15   79 1    
    32   15   80 1    
    33   16   17 1    
    34   17   18 1    
    35   17   81 1    
    36   17   82 1    
    37   18   19 1    
    38   18   22 1    
    39   18   83 1    
    40   19   20 am   BACKBONE|DICT|INTERRES
    41   19   21 2    
    42   20   84 1    
    43   20   85 1    
    44   22   23 am   BACKBONE|DICT|INTERRES
    45   22   86 1    
    46   23   24 2    
    47   23   25 1    
    48   25   26 1    
    49   25   27 1    
    50   25   87 1    
    51   26   88 1    
    52   26   89 1    
    53   26   90 1    
    54   27   28 am   BACKBONE|DICT|INTERRES
    55   27   91 1    
    56   28   29 2    
    57   28   30 1    
    58   30   31 1    
    59   30   32 1    
    60   30   92 1    
    61   31   93 1    
    62   31   94 1    
    63   31   95 1    
    64   32   33 am   BACKBONE|DICT|INTERRES
    65   32   96 1    
    66   33   34 2    
    67   33   35 1    
    68   35   36 1    
    69   35   37 1    
    70   35   97 1    
    71   36   98 1    
    72   36   99 1    
    73   36  100 1    
    74   37   38 am   BACKBONE|DICT|INTERRES
    75   37  101 1    
    76   38   39 2    
    77   38   40 1    
    78   40   41 1    
    79   40   42 1    
    80   40  102 1    
    81   41  103 1    
    82   41  104 1    
    83   41  105 1    
    84   42   43 am   BACKBONE|DICT|INTERRES
    85   42  106 1    
    86   43   44 2    
    87   43   45 1    
    88   45   46 1    
    89   45   49 1    
    90   45  107 1    
    91   46   47 1    
    92   46  108 1    
    93   46  109 1    
    94   47   48 1    
    95   48  110 1    
    96   48  111 1    
    97   49   50 am   BACKBONE|DICT|INTERRES
    98   49  112 1    
    99   50   51 2    
   100   50   52 1    
   101   52   53 1    
   102   52   54 1    
   103   52  113 1    
   104   53  114 1    
   105   53  115 1    
   106   53  116 1    
   107   54   55 am   BACKBONE|DICT|INTERRES
   108   54  117 1    
   109   55   56 2    
   110   55   57 1    
   111   57   58 1    
   112   57   59 1    
   113   57  118 1    
   114   58  119 1    
   115   58  120 1    
   116   58  121 1    
   117   59   60 am   BACKBONE|DICT|INTERRES
   118   59  122 1    
   119   60   61 2    
   120   60   62 1    
   121   62   63 1    
   122   62   64 1    
   123   62  123 1    
   124   63  124 1    
   125   63  125 1    
   126   63  126 1    
   127   64   65 am   BACKBONE|DICT|INTERRES
   128   64  127 1    
   129   65   66 2    
@<TRIPOS>SUBSTRUCTURE
     1 UNK         1 GROUP             0       ****    0 ROOT    
