@<TRIPOS>MOLECULE
3R134
127   129    1
SMALL
USER_CHARGES


@<TRIPOS>ATOM
      1 CA         30.2045  -45.3455  -50.9418 C.3       0 UNK        -0.1968 
      2 C          31.5890  -45.6620  -51.4859 C.2       0 UNK         0.4852 
      3 O          31.7111  -46.5032  -52.3777 O.2       0 UNK        -0.5359 
      4 N          32.6291  -45.0035  -50.9488 N.am      1 UNK        -0.4300 
      5 CA         34.0440  -45.1604  -51.3138 C.3       1 UNK         0.0863 
      6 C6         34.3671  -44.6036  -52.7312 C.3       11 UNK        -0.0953 
      7 S7         34.4326  -42.7794  -52.7989 S.3       11 UNK        -0.2369 
      8 C8         32.6925  -42.2601  -53.0159 C.3       11 UNK         0.0226 
      9 C9         31.9318  -42.9452  -54.1494 C.ar      11 UNK        -0.0699 
     10 C10        32.5595  -43.3295  -55.3415 C.ar      11 UNK        -0.0804 
     11 C11        31.8474  -44.0176  -56.3284 C.ar      11 UNK        -0.0871 
     12 C12        30.4861  -44.2681  -56.1447 C.ar      11 UNK        -0.1008 
     13 C13        29.8375  -43.8573  -54.9796 C.ar      11 UNK        -0.0735 
     14 C14        30.5657  -43.1983  -53.9867 C.ar      11 UNK        -0.0945 
     15 C15        28.3614  -44.1591  -54.7756 C.3       11 UNK         0.0169 
     16 S16        27.3153  -42.7177  -55.1406 S.3       11 UNK        -0.2669 
     17 C17        27.2503  -42.7531  -56.9651 C.3       11 UNK        -0.0850 
     18 CA         25.8733  -43.2311  -57.4915 C.3       10 UNK         0.0855 
     19 C          25.7781  -43.0456  -59.0298 C.2       10 UNK         0.5543 
     20 N          25.3069  -41.8939  -59.4869 N.am      10 UNK        -0.7343 
     21 O          26.1668  -43.9149  -59.8072 O.2       10 UNK        -0.5027 
     22 N          25.5858  -44.6161  -57.0899 N.am      10 UNK        -0.4495 
     23 C          24.3673  -45.1700  -57.0903 C.2       10 UNK         0.4903 
     24 O          23.3361  -44.5473  -57.3479 O.2       10 UNK        -0.4860 
     25 CA         24.2630  -46.6694  -56.7570 C.3       9 UNK         0.0227 
     26 CB         23.8627  -47.4664  -58.0097 C.3       9 UNK        -0.1964 
     27 N          25.4946  -47.2387  -56.1975 N.am      9 UNK        -0.4231 
     28 C          25.8468  -47.1617  -54.9036 C.2       9 UNK         0.5014 
     29 O          25.1857  -46.5459  -54.0659 O.2       9 UNK        -0.5270 
     30 CA         27.1516  -47.8613  -54.4579 C.3       8 UNK         0.0284 
     31 CB         27.0416  -48.4730  -53.0449 C.3       8 UNK        -0.1977 
     32 N          27.6731  -48.8371  -55.4212 N.am      8 UNK        -0.4342 
     33 C          27.0988  -49.9794  -55.8347 C.2       8 UNK         0.5039 
     34 O          26.0410  -50.4172  -55.3781 O.2       8 UNK        -0.5547 
     35 CA         27.7991  -50.7357  -56.9895 C.3       7 UNK         0.0281 
     36 CB         26.8177  -51.5998  -57.8088 C.3       7 UNK        -0.1963 
     37 N          28.5759  -49.8659  -57.8860 N.am      7 UNK        -0.4444 
     38 C          28.1420  -48.7659  -58.5251 C.2       7 UNK         0.5104 
     39 O          26.9679  -48.3955  -58.5146 O.2       7 UNK        -0.5100 
     40 CA         29.2095  -47.8863  -59.2157 C.3       6 UNK         0.0396 
     41 CB         28.7721  -46.4081  -59.2928 C.3       6 UNK        -0.1801 
     42 N          30.5464  -47.9906  -58.6083 N.am      6 UNK        -0.4747 
     43 C          30.8607  -47.8020  -57.3162 C.2       6 UNK         0.5012 
     44 O          30.0437  -47.4736  -56.4531 O.2       6 UNK        -0.5003 
     45 CA         32.3052  -48.1445  -56.9000 C.3       5 UNK         0.0782 
     46 C46        32.9766  -46.9795  -56.1269 C.3       11 UNK        -0.0868 
     47 S47        33.8249  -45.7841  -57.2169 S.3       11 UNK        -0.2515 
     48 C48        32.5476  -44.5299  -57.5788 C.3       11 UNK         0.0199 
     49 N          32.3262  -49.3795  -56.1103 N.am      5 UNK        -0.4607 
     50 C          31.8704  -50.5853  -56.4850 C.2       4 UNK         0.5031 
     51 O          31.3897  -50.8240  -57.5934 O.2       4 UNK        -0.5119 
     52 CA         31.9533  -51.7176  -55.4435 C.3       4 UNK         0.0263 
     53 CB         33.1765  -52.6070  -55.7155 C.3       4 UNK        -0.1967 
     54 N          32.0230  -51.2129  -54.0703 N.am      4 UNK        -0.4237 
     55 C          31.0128  -50.6266  -53.4168 C.2       3 UNK         0.4908 
     56 O          29.8593  -50.6052  -53.8417 O.2       3 UNK        -0.5102 
     57 CA         31.3459  -49.8933  -52.1044 C.3       3 UNK         0.0241 
     58 CB         31.1847  -50.8192  -50.8834 C.3       3 UNK        -0.1971 
     59 N          32.6487  -49.2033  -52.1096 N.am      3 UNK        -0.4139 
     60 C          33.8836  -49.7331  -52.1150 C.2       2 UNK         0.5016 
     61 O          34.0960  -50.9460  -52.1220 O.2       2 UNK        -0.5319 
     62 CA         35.0904  -48.7783  -52.2016 C.3       2 UNK         0.0286 
     63 CB         35.9145  -49.0649  -53.4700 C.3       2 UNK        -0.1963 
     64 N          34.7197  -47.3619  -52.1992 N.am      2 UNK        -0.4790 
     65 C          34.4858  -46.6275  -51.1031 C.2       1 UNK         0.5024 
     66 O          34.5833  -47.0675  -49.9563 O.2       1 UNK        -0.4888 
     67 H67        29.8214  -46.1959  -50.3785 H         1 UNK         0.0892 
     68 H68        30.2123  -44.4746  -50.2867 H         1 UNK         0.0892 
     69 H69        29.5174  -45.1458  -51.7629 H         1 UNK         0.0892 
     70 H70        32.4581  -44.3578  -50.1910 H         1 UNK         0.3107 
     71 H71        34.6175  -44.5804  -50.5888 H         1 UNK         0.0773 
     72 H72        35.3594  -44.9276  -53.0502 H         1 UNK         0.0680 
     73 H73        33.6742  -44.9893  -53.4792 H         1 UNK         0.0680 
     74 H74        32.6757  -41.1843  -53.1928 H         1 UNK         0.0650 
     75 H75        32.1761  -42.4204  -52.0687 H         1 UNK         0.0650 
     76 H76        33.6137  -43.1386  -55.4859 H         1 UNK         0.1397 
     77 H77        29.9348  -44.8067  -56.9007 H         1 UNK         0.1363 
     78 H78        30.0656  -42.8927  -53.0780 H         1 UNK         0.1355 
     79 H79        28.0543  -44.9970  -55.4010 H         1 UNK         0.0707 
     80 H80        28.1889  -44.4677  -53.7438 H         1 UNK         0.0707 
     81 H81        27.4565  -41.7386  -57.3119 H         1 UNK         0.1034 
     82 H82        28.0538  -43.3710  -57.3671 H         1 UNK         0.1034 
     83 H83        25.1099  -42.5959  -57.0364 H         1 UNK         0.0482 
     84 H84        25.2522  -41.7485  -60.4830 H         1 UNK         0.3460 
     85 H85        24.9931  -41.1710  -58.8578 H         1 UNK         0.3460 
     86 H86        26.3787  -45.2068  -56.8999 H         1 UNK         0.2989 
     87 H87        23.4632  -46.7844  -56.0224 H         1 UNK         0.0559 
     88 H88        23.7988  -48.5346  -57.8008 H         1 UNK         0.0848 
     89 H89        24.5751  -47.3248  -58.8233 H         1 UNK         0.0848 
     90 H90        22.8862  -47.1489  -58.3779 H         1 UNK         0.0848 
     91 H91        26.0840  -47.7558  -56.8449 H         1 UNK         0.3144 
     92 H92        27.9108  -47.0817  -54.4049 H         1 UNK         0.0727 
     93 H93        27.9792  -48.9376  -52.7407 H         1 UNK         0.0790 
     94 H94        26.2585  -49.2295  -52.9903 H         1 UNK         0.0790 
     95 H95        26.8071  -47.7087  -52.3032 H         1 UNK         0.0790 
     96 H96        28.5485  -48.5596  -55.8602 H         1 UNK         0.3215 
     97 H97        28.5186  -51.4045  -56.5142 H         1 UNK         0.0863 
     98 H98        27.3324  -52.1396  -58.6036 H         1 UNK         0.0808 
     99 H99        26.0342  -50.9945  -58.2661 H         1 UNK         0.0808 
    100 H100       26.3286  -52.3438  -57.1789 H         1 UNK         0.0808 
    101 H101       29.5681  -50.0808  -57.9416 H         1 UNK         0.3118 
    102 H102       29.3035  -48.2620  -60.2354 H         1 UNK         0.0546 
    103 H103       28.5404  -46.0049  -58.3074 H         1 UNK         0.0828 
    104 H104       27.8735  -46.2973  -59.9015 H         1 UNK         0.0828 
    105 H105       29.5436  -45.7832  -59.7420 H         1 UNK         0.0828 
    106 H106       31.2723  -48.3203  -59.2305 H         1 UNK         0.3005 
    107 H107       32.8913  -48.3492  -57.7986 H         1 UNK         0.1257 
    108 H108       32.2873  -46.4816  -55.4423 H         1 UNK         0.0775 
    109 H109       33.7622  -47.3738  -55.4818 H         1 UNK         0.0775 
    110 H110       33.0139  -43.6904  -58.0961 H         1 UNK         0.0840 
    111 H111       31.8279  -44.9556  -58.2799 H         1 UNK         0.0840 
    112 H112       32.6581  -49.2876  -55.1635 H         1 UNK         0.2987 
    113 H113       31.0522  -52.3265  -55.5434 H         1 UNK         0.0785 
    114 H114       33.2140  -53.4506  -55.0260 H         1 UNK         0.0798 
    115 H115       34.1104  -52.0518  -55.6174 H         1 UNK         0.0798 
    116 H116       33.1443  -53.0170  -56.7260 H         1 UNK         0.0798 
    117 H117       32.9229  -51.2466  -53.5976 H         1 UNK         0.3079 
    118 H118       30.6048  -49.0980  -52.0065 H         1 UNK         0.0794 
    119 H119       30.1713  -51.2195  -50.8337 H         1 UNK         0.0786 
    120 H120       31.3672  -50.2819  -49.9527 H         1 UNK         0.0786 
    121 H121       31.8652  -51.6702  -50.9195 H         1 UNK         0.0786 
    122 H122       32.5699  -48.1891  -52.1663 H         1 UNK         0.3032 
    123 H123       35.7204  -48.9838  -51.3328 H         1 UNK         0.1094 
    124 H124       35.3295  -48.9198  -54.3785 H         1 UNK         0.0794 
    125 H125       36.7909  -48.4190  -53.5280 H         1 UNK         0.0794 
    126 H126       36.2764  -50.0941  -53.4788 H         1 UNK         0.0794 
    127 H127       34.5818  -46.9269  -53.0998 H         1 UNK         0.3016 
@<TRIPOS>BOND
     1    1    2 1    
     2    1   67 1    
     3    1   68 1    
     4    1   69 1    
     5    2    3 2    
     6    2    4 am   BACKBONE|DICT|INTERRES
     7    4    5 1    
     8    4   70 1    
     9    5    6 1    
    10    5   65 1    
    11    5   71 1    
    12    6    7 1    
    13    6   72 1    
    14    6   73 1    
    15    7    8 1    
    16    8    9 1    
    17    8   74 1    
    18    8   75 1    
    19    9   10 ar   
    20    9   14 ar   
    21   10   11 ar   
    22   10   76 1    
    23   11   12 ar   
    24   11   48 1    
    25   12   13 ar   
    26   12   77 1    
    27   13   14 ar   
    28   13   15 1    
    29   14   78 1    
    30   15   16 1    
    31   15   79 1    
    32   15   80 1    
    33   16   17 1    
    34   17   18 1    
    35   17   81 1    
    36   17   82 1    
    37   18   19 1    
    38   18   22 1    
    39   18   83 1    
    40   19   20 am   BACKBONE|DICT|INTERRES
    41   19   21 2    
    42   20   84 1    
    43   20   85 1    
    44   22   23 am   BACKBONE|DICT|INTERRES
    45   22   86 1    
    46   23   24 2    
    47   23   25 1    
    48   25   26 1    
    49   25   27 1    
    50   25   87 1    
    51   26   88 1    
    52   26   89 1    
    53   26   90 1    
    54   27   28 am   BACKBONE|DICT|INTERRES
    55   27   91 1    
    56   28   29 2    
    57   28   30 1    
    58   30   31 1    
    59   30   32 1    
    60   30   92 1    
    61   31   93 1    
    62   31   94 1    
    63   31   95 1    
    64   32   33 am   BACKBONE|DICT|INTERRES
    65   32   96 1    
    66   33   34 2    
    67   33   35 1    
    68   35   36 1    
    69   35   37 1    
    70   35   97 1    
    71   36   98 1    
    72   36   99 1    
    73   36  100 1    
    74   37   38 am   BACKBONE|DICT|INTERRES
    75   37  101 1    
    76   38   39 2    
    77   38   40 1    
    78   40   41 1    
    79   40   42 1    
    80   40  102 1    
    81   41  103 1    
    82   41  104 1    
    83   41  105 1    
    84   42   43 am   BACKBONE|DICT|INTERRES
    85   42  106 1    
    86   43   44 2    
    87   43   45 1    
    88   45   46 1    
    89   45   49 1    
    90   45  107 1    
    91   46   47 1    
    92   46  108 1    
    93   46  109 1    
    94   47   48 1    
    95   48  110 1    
    96   48  111 1    
    97   49   50 am   BACKBONE|DICT|INTERRES
    98   49  112 1    
    99   50   51 2    
   100   50   52 1    
   101   52   53 1    
   102   52   54 1    
   103   52  113 1    
   104   53  114 1    
   105   53  115 1    
   106   53  116 1    
   107   54   55 am   BACKBONE|DICT|INTERRES
   108   54  117 1    
   109   55   56 2    
   110   55   57 1    
   111   57   58 1    
   112   57   59 1    
   113   57  118 1    
   114   58  119 1    
   115   58  120 1    
   116   58  121 1    
   117   59   60 am   BACKBONE|DICT|INTERRES
   118   59  122 1    
   119   60   61 2    
   120   60   62 1    
   121   62   63 1    
   122   62   64 1    
   123   62  123 1    
   124   63  124 1    
   125   63  125 1    
   126   63  126 1    
   127   64   65 am   BACKBONE|DICT|INTERRES
   128   64  127 1    
   129   65   66 2    
@<TRIPOS>SUBSTRUCTURE
     1 UNK         1 GROUP             0       ****    0 ROOT    
