@<TRIPOS>MOLECULE
3R134
127   129    1
SMALL
USER_CHARGES


@<TRIPOS>ATOM
      1 CA         28.7665  -44.9802  -51.8637 C.3       0 UNK        -0.1968 
      2 C          30.1033  -45.0613  -51.1420 C.2       0 UNK         0.4852 
      3 O          30.1363  -45.0600  -49.9100 O.2       0 UNK        -0.5359 
      4 N          31.2030  -45.1324  -51.9021 N.am      1 UNK        -0.4300 
      5 CA         32.5648  -45.3321  -51.3932 C.3       1 UNK         0.0863 
      6 C6         33.6251  -44.9245  -52.4467 C.3       11 UNK        -0.0953 
      7 S7         33.6227  -43.1241  -52.7194 S.3       11 UNK        -0.2369 
      8 C8         34.2555  -43.0079  -54.4249 C.3       11 UNK         0.0226 
      9 C9         33.2409  -43.4037  -55.4946 C.ar      11 UNK        -0.0699 
     10 C10        33.6534  -44.1648  -56.5930 C.ar      11 UNK        -0.0804 
     11 C11        32.7597  -44.4761  -57.6234 C.ar      11 UNK        -0.0871 
     12 C12        31.4358  -44.0317  -57.5425 C.ar      11 UNK        -0.1008 
     13 C13        31.0080  -43.2774  -56.4470 C.ar      11 UNK        -0.0735 
     14 C14        31.9148  -42.9613  -55.4316 C.ar      11 UNK        -0.0945 
     15 C15        29.5753  -42.7786  -56.3648 C.3       11 UNK         0.0169 
     16 S16        28.5179  -43.9707  -55.4893 S.3       11 UNK        -0.2669 
     17 C17        27.1158  -42.9017  -55.0022 C.3       11 UNK        -0.0850 
     18 CA         25.8364  -43.0893  -55.8589 C.3       10 UNK         0.0855 
     19 C          25.9587  -42.4682  -57.2831 C.2       10 UNK         0.5543 
     20 N          25.6101  -43.1675  -58.3573 N.am      10 UNK        -0.7343 
     21 O          26.3648  -41.3163  -57.4155 O.2       10 UNK        -0.5027 
     22 N          25.3856  -44.4862  -55.8342 N.am      10 UNK        -0.4495 
     23 C          24.1154  -44.8940  -55.9235 C.2       10 UNK         0.4903 
     24 O          23.1469  -44.1327  -55.9467 O.2       10 UNK        -0.4860 
     25 CA         23.9146  -46.4177  -56.0229 C.3       9 UNK         0.0227 
     26 CB         22.4725  -46.8149  -56.4037 C.3       9 UNK        -0.1964 
     27 N          24.8870  -47.0548  -56.9216 N.am      9 UNK        -0.4231 
     28 C          25.0656  -46.8081  -58.2317 C.2       9 UNK         0.5014 
     29 O          24.4287  -45.9572  -58.8543 O.2       9 UNK        -0.5270 
     30 CA         26.1533  -47.6034  -58.9847 C.3       8 UNK         0.0284 
     31 CB         27.2671  -46.6549  -59.4618 C.3       8 UNK        -0.1977 
     32 N          26.7504  -48.6852  -58.1965 N.am      8 UNK        -0.4342 
     33 C          26.1248  -49.8228  -57.8527 C.2       8 UNK         0.5039 
     34 O          25.0176  -50.1431  -58.2862 O.2       8 UNK        -0.5547 
     35 CA         26.8131  -50.7413  -56.8206 C.3       7 UNK         0.0281 
     36 CB         27.3915  -51.9850  -57.5135 C.3       7 UNK        -0.1963 
     37 N          27.8683  -50.0851  -56.0393 N.am      7 UNK        -0.4444 
     38 C          27.6935  -49.0186  -55.2407 C.2       7 UNK         0.5104 
     39 O          26.5889  -48.5324  -54.9947 O.2       7 UNK        -0.5100 
     40 CA         28.9538  -48.3229  -54.6863 C.3       6 UNK         0.0396 
     41 CB         29.1585  -48.6882  -53.2105 C.3       6 UNK        -0.1801 
     42 N          30.1848  -48.6045  -55.4368 N.am      6 UNK        -0.4747 
     43 C          30.3631  -48.3532  -56.7461 C.2       6 UNK         0.5012 
     44 O          29.5102  -47.8014  -57.4414 O.2       6 UNK        -0.5003 
     45 CA         31.6529  -48.8839  -57.4174 C.3       5 UNK         0.0782 
     46 C46        32.6870  -47.7571  -57.6600 C.3       11 UNK        -0.0868 
     47 S47        32.2872  -46.7750  -59.1426 S.3       11 UNK        -0.2515 
     48 C48        33.2418  -45.2542  -58.8422 C.3       11 UNK         0.0199 
     49 N          32.2623  -50.0131  -56.7068 N.am      5 UNK        -0.4607 
     50 C          31.6761  -51.1912  -56.4497 C.2       4 UNK         0.5031 
     51 O          30.5428  -51.4834  -56.8299 O.2       4 UNK        -0.5119 
     52 CA         32.4638  -52.1955  -55.5857 C.3       4 UNK         0.0263 
     53 CB         33.0702  -53.2978  -56.4689 C.3       4 UNK        -0.1967 
     54 N          33.5248  -51.5943  -54.7644 N.am      4 UNK        -0.4237 
     55 C          33.3347  -50.6667  -53.8157 C.2       3 UNK         0.4908 
     56 O          32.2316  -50.1897  -53.5345 O.2       3 UNK        -0.5102 
     57 CA         34.5938  -50.1470  -53.1128 C.3       3 UNK         0.0241 
     58 CB         35.3827  -49.1968  -54.0359 C.3       3 UNK        -0.1971 
     59 N          34.1901  -49.4367  -51.9055 N.am      3 UNK        -0.4139 
     60 C          34.9502  -49.1710  -50.8397 C.2       2 UNK         0.5016 
     61 O          36.1301  -49.5144  -50.7409 O.2       2 UNK        -0.5319 
     62 CA         34.2793  -48.3573  -49.7118 C.3       2 UNK         0.0286 
     63 CB         35.1907  -48.1846  -48.4818 C.3       2 UNK        -0.1963 
     64 N          33.8530  -47.0307  -50.1741 N.am      2 UNK        -0.4790 
     65 C          32.7776  -46.7905  -50.9367 C.2       1 UNK         0.5024 
     66 O          32.0046  -47.6791  -51.3008 O.2       1 UNK        -0.4888 
     67 H67        28.4291  -43.9457  -51.9185 H         1 UNK         0.0892 
     68 H68        28.0123  -45.5598  -51.3320 H         1 UNK         0.0892 
     69 H69        28.8355  -45.3757  -52.8764 H         1 UNK         0.0892 
     70 H70        31.1122  -45.1311  -52.9075 H         1 UNK         0.3107 
     71 H71        32.6932  -44.7019  -50.5102 H         1 UNK         0.0773 
     72 H72        33.4505  -45.4442  -53.3910 H         1 UNK         0.0680 
     73 H73        34.6325  -45.1981  -52.1273 H         1 UNK         0.0680 
     74 H74        34.5587  -41.9766  -54.6088 H         1 UNK         0.0650 
     75 H75        35.1601  -43.6132  -54.5028 H         1 UNK         0.0650 
     76 H76        34.6817  -44.4938  -56.6584 H         1 UNK         0.1397 
     77 H77        30.7393  -44.2712  -58.3348 H         1 UNK         0.1363 
     78 H78        31.5873  -42.3601  -54.5945 H         1 UNK         0.1355 
     79 H79        29.1726  -42.6038  -57.3637 H         1 UNK         0.0707 
     80 H80        29.5581  -41.8153  -55.8529 H         1 UNK         0.0707 
     81 H81        27.4203  -41.8538  -54.9882 H         1 UNK         0.1034 
     82 H82        26.8795  -43.1359  -53.9633 H         1 UNK         0.1034 
     83 H83        25.0622  -42.4933  -55.3720 H         1 UNK         0.0482 
     84 H84        25.2273  -44.1012  -58.2781 H         1 UNK         0.3460 
     85 H85        25.6922  -42.7387  -59.2650 H         1 UNK         0.3460 
     86 H86        26.1213  -45.1777  -55.8400 H         1 UNK         0.2989 
     87 H87        24.1141  -46.8173  -55.0275 H         1 UNK         0.0559 
     88 H88        22.3586  -47.8979  -56.4492 H         1 UNK         0.0848 
     89 H89        22.1811  -46.4063  -57.3719 H         1 UNK         0.0848 
     90 H90        21.7578  -46.4452  -55.6674 H         1 UNK         0.0848 
     91 H91        25.4954  -47.7343  -56.4742 H         1 UNK         0.3144 
     92 H92        25.6811  -48.0460  -59.8641 H         1 UNK         0.0727 
     93 H93        28.0463  -47.1928  -60.0023 H         1 UNK         0.0790 
     94 H94        27.7380  -46.1334  -58.6269 H         1 UNK         0.0790 
     95 H95        26.8721  -45.8941  -60.1363 H         1 UNK         0.0790 
     96 H96        27.6769  -48.5002  -57.8206 H         1 UNK         0.3215 
     97 H97        26.0432  -51.0673  -56.1182 H         1 UNK         0.0863 
     98 H98        27.8274  -52.6766  -56.7923 H         1 UNK         0.0808 
     99 H99        28.1664  -51.7198  -58.2340 H         1 UNK         0.0808 
    100 H100       26.6155  -52.5282  -58.0546 H         1 UNK         0.0808 
    101 H101       28.8134  -50.4206  -56.1950 H         1 UNK         0.3118 
    102 H102       28.7768  -47.2472  -54.7485 H         1 UNK         0.0546 
    103 H103       28.2600  -48.4873  -52.6254 H         1 UNK         0.0828 
    104 H104       29.9636  -48.1016  -52.7725 H         1 UNK         0.0828 
    105 H105       29.4053  -49.7432  -53.0847 H         1 UNK         0.0828 
    106 H106       30.9190  -49.0876  -54.9301 H         1 UNK         0.3005 
    107 H107       31.3450  -49.2823  -58.3872 H         1 UNK         0.1257 
    108 H108       33.6797  -48.1784  -57.8267 H         1 UNK         0.0775 
    109 H109       32.7778  -47.1127  -56.7834 H         1 UNK         0.0775 
    110 H110       34.2974  -45.5149  -58.7497 H         1 UNK         0.0840 
    111 H111       33.1623  -44.6123  -59.7206 H         1 UNK         0.0840 
    112 H112       33.1936  -49.8651  -56.3492 H         1 UNK         0.2987 
    113 H113       31.7463  -52.6584  -54.9048 H         1 UNK         0.0785 
    114 H114       33.8179  -52.8996  -57.1560 H         1 UNK         0.0798 
    115 H115       32.3006  -53.7833  -57.0711 H         1 UNK         0.0798 
    116 H116       33.5438  -54.0741  -55.8676 H         1 UNK         0.0798 
    117 H117       34.4648  -51.9218  -54.9382 H         1 UNK         0.3079 
    118 H118       35.2151  -51.0012  -52.8353 H         1 UNK         0.0794 
    119 H119       34.7843  -48.3325  -54.3282 H         1 UNK         0.0786 
    120 H120       35.7006  -49.7011  -54.9490 H         1 UNK         0.0786 
    121 H121       36.2839  -48.8258  -53.5473 H         1 UNK         0.0786 
    122 H122       33.2210  -49.1220  -51.9062 H         1 UNK         0.3032 
    123 H123       33.3979  -48.9195  -49.3935 H         1 UNK         0.1094 
    124 H124       36.0937  -47.6219  -48.7222 H         1 UNK         0.0794 
    125 H125       34.6746  -47.6635  -47.6753 H         1 UNK         0.0794 
    126 H126       35.5046  -49.1530  -48.0894 H         1 UNK         0.0794 
    127 H127       34.4614  -46.2597  -49.9368 H         1 UNK         0.3016 
@<TRIPOS>BOND
     1    1    2 1    
     2    1   67 1    
     3    1   68 1    
     4    1   69 1    
     5    2    3 2    
     6    2    4 am   BACKBONE|DICT|INTERRES
     7    4    5 1    
     8    4   70 1    
     9    5    6 1    
    10    5   65 1    
    11    5   71 1    
    12    6    7 1    
    13    6   72 1    
    14    6   73 1    
    15    7    8 1    
    16    8    9 1    
    17    8   74 1    
    18    8   75 1    
    19    9   10 ar   
    20    9   14 ar   
    21   10   11 ar   
    22   10   76 1    
    23   11   12 ar   
    24   11   48 1    
    25   12   13 ar   
    26   12   77 1    
    27   13   14 ar   
    28   13   15 1    
    29   14   78 1    
    30   15   16 1    
    31   15   79 1    
    32   15   80 1    
    33   16   17 1    
    34   17   18 1    
    35   17   81 1    
    36   17   82 1    
    37   18   19 1    
    38   18   22 1    
    39   18   83 1    
    40   19   20 am   BACKBONE|DICT|INTERRES
    41   19   21 2    
    42   20   84 1    
    43   20   85 1    
    44   22   23 am   BACKBONE|DICT|INTERRES
    45   22   86 1    
    46   23   24 2    
    47   23   25 1    
    48   25   26 1    
    49   25   27 1    
    50   25   87 1    
    51   26   88 1    
    52   26   89 1    
    53   26   90 1    
    54   27   28 am   BACKBONE|DICT|INTERRES
    55   27   91 1    
    56   28   29 2    
    57   28   30 1    
    58   30   31 1    
    59   30   32 1    
    60   30   92 1    
    61   31   93 1    
    62   31   94 1    
    63   31   95 1    
    64   32   33 am   BACKBONE|DICT|INTERRES
    65   32   96 1    
    66   33   34 2    
    67   33   35 1    
    68   35   36 1    
    69   35   37 1    
    70   35   97 1    
    71   36   98 1    
    72   36   99 1    
    73   36  100 1    
    74   37   38 am   BACKBONE|DICT|INTERRES
    75   37  101 1    
    76   38   39 2    
    77   38   40 1    
    78   40   41 1    
    79   40   42 1    
    80   40  102 1    
    81   41  103 1    
    82   41  104 1    
    83   41  105 1    
    84   42   43 am   BACKBONE|DICT|INTERRES
    85   42  106 1    
    86   43   44 2    
    87   43   45 1    
    88   45   46 1    
    89   45   49 1    
    90   45  107 1    
    91   46   47 1    
    92   46  108 1    
    93   46  109 1    
    94   47   48 1    
    95   48  110 1    
    96   48  111 1    
    97   49   50 am   BACKBONE|DICT|INTERRES
    98   49  112 1    
    99   50   51 2    
   100   50   52 1    
   101   52   53 1    
   102   52   54 1    
   103   52  113 1    
   104   53  114 1    
   105   53  115 1    
   106   53  116 1    
   107   54   55 am   BACKBONE|DICT|INTERRES
   108   54  117 1    
   109   55   56 2    
   110   55   57 1    
   111   57   58 1    
   112   57   59 1    
   113   57  118 1    
   114   58  119 1    
   115   58  120 1    
   116   58  121 1    
   117   59   60 am   BACKBONE|DICT|INTERRES
   118   59  122 1    
   119   60   61 2    
   120   60   62 1    
   121   62   63 1    
   122   62   64 1    
   123   62  123 1    
   124   63  124 1    
   125   63  125 1    
   126   63  126 1    
   127   64   65 am   BACKBONE|DICT|INTERRES
   128   64  127 1    
   129   65   66 2    
@<TRIPOS>SUBSTRUCTURE
     1 UNK         1 GROUP             0       ****    0 ROOT    
