@<TRIPOS>MOLECULE
3R134
127   129    1
SMALL
USER_CHARGES


@<TRIPOS>ATOM
      1 CA         35.7094  -46.9682  -49.0967 C.3       0 UNK        -0.1968 
      2 C          35.2969  -46.2418  -50.3679 C.2       0 UNK         0.4852 
      3 O          34.1835  -46.4507  -50.8525 O.2       0 UNK        -0.5359 
      4 N          36.1871  -45.3996  -50.9143 N.am      1 UNK        -0.4300 
      5 CA         36.0103  -44.6383  -52.1565 C.3       1 UNK         0.0863 
      6 C6         34.8998  -43.5583  -52.0310 C.3       11 UNK        -0.0953 
      7 S7         35.0297  -42.2679  -53.3118 S.3       11 UNK        -0.2369 
      8 C8         33.3857  -41.4948  -53.2074 C.3       11 UNK         0.0226 
      9 C9         32.3085  -42.3689  -53.8324 C.ar      11 UNK        -0.0699 
     10 C10        31.4774  -43.1527  -53.0278 C.ar      11 UNK        -0.0804 
     11 C11        30.4953  -43.9600  -53.6048 C.ar      11 UNK        -0.0871 
     12 C12        30.3426  -43.9770  -54.9937 C.ar      11 UNK        -0.1008 
     13 C13        31.1526  -43.1802  -55.8144 C.ar      11 UNK        -0.0735 
     14 C14        32.1366  -42.3836  -55.2197 C.ar      11 UNK        -0.0945 
     15 C15        31.0332  -43.1665  -57.3407 C.3       11 UNK         0.0169 
     16 S16        29.5131  -43.9047  -58.0321 S.3       11 UNK        -0.2669 
     17 C17        28.2542  -42.6793  -57.5256 C.3       11 UNK        -0.0850 
     18 CA         26.8315  -43.0084  -58.0506 C.3       10 UNK         0.0855 
     19 C          26.7037  -42.7477  -59.5825 C.2       10 UNK         0.5543 
     20 N          26.5010  -43.7580  -60.4210 N.am      10 UNK        -0.7343 
     21 O          26.7784  -41.5996  -60.0137 O.2       10 UNK        -0.5027 
     22 N          26.3933  -44.3406  -57.6083 N.am      10 UNK        -0.4495 
     23 C          25.1301  -44.7840  -57.6254 C.2       10 UNK         0.4903 
     24 O          24.1613  -44.0611  -57.8644 O.2       10 UNK        -0.4860 
     25 CA         24.9090  -46.2841  -57.3295 C.3       9 UNK         0.0227 
     26 CB         23.6739  -46.8483  -58.0620 C.3       9 UNK        -0.1964 
     27 N          26.0775  -47.1422  -57.5797 N.am      9 UNK        -0.4231 
     28 C          26.7556  -47.2854  -58.7308 C.2       9 UNK         0.5014 
     29 O          26.5152  -46.6462  -59.7563 O.2       9 UNK        -0.5270 
     30 CA         27.9085  -48.3031  -58.7374 C.3       8 UNK         0.0284 
     31 CB         29.1879  -47.6831  -58.1523 C.3       8 UNK        -0.1977 
     32 N          27.5947  -49.5408  -58.0211 N.am      8 UNK        -0.4342 
     33 C          26.6873  -50.4454  -58.4176 C.2       8 UNK         0.5039 
     34 O          25.9955  -50.3299  -59.4299 O.2       8 UNK        -0.5547 
     35 CA         26.5306  -51.6964  -57.5416 C.3       7 UNK         0.0281 
     36 CB         27.6578  -52.7036  -57.8244 C.3       7 UNK        -0.1963 
     37 N          26.5251  -51.3489  -56.1207 N.am      7 UNK        -0.4444 
     38 C          25.4236  -51.0327  -55.4260 C.2       7 UNK         0.5104 
     39 O          24.2846  -51.0649  -55.8926 O.2       7 UNK        -0.5100 
     40 CA         25.6180  -50.6061  -53.9582 C.3       6 UNK         0.0396 
     41 CB         25.4541  -51.8147  -53.0232 C.3       6 UNK        -0.1801 
     42 N          26.9095  -49.9639  -53.6966 N.am      6 UNK        -0.4747 
     43 C          27.2845  -48.7790  -54.2000 C.2       6 UNK         0.5012 
     44 O          26.5743  -48.0906  -54.9324 O.2       6 UNK        -0.5003 
     45 CA         28.7136  -48.3025  -53.8829 C.3       5 UNK         0.0782 
     46 C46        28.7480  -47.4829  -52.5721 C.3       11 UNK        -0.0868 
     47 S47        30.2644  -46.4732  -52.4798 S.3       11 UNK        -0.2515 
     48 C48        29.5820  -44.8037  -52.7333 C.3       11 UNK         0.0199 
     49 N          29.6958  -49.3917  -53.8567 N.am      5 UNK        -0.4607 
     50 C          29.9694  -50.2400  -54.8549 C.2       4 UNK         0.5031 
     51 O          29.3463  -50.2528  -55.9180 O.2       4 UNK        -0.5119 
     52 CA         31.1247  -51.2334  -54.6210 C.3       4 UNK         0.0263 
     53 CB         31.5453  -51.9579  -55.9126 C.3       4 UNK        -0.1967 
     54 N          32.3007  -50.5766  -54.0447 N.am      4 UNK        -0.4237 
     55 C          32.4860  -50.2715  -52.7554 C.2       3 UNK         0.4908 
     56 O          31.6665  -50.5346  -51.8750 O.2       3 UNK        -0.5102 
     57 CA         33.7688  -49.5061  -52.3889 C.3       3 UNK         0.0241 
     58 CB         35.0113  -50.4158  -52.4497 C.3       3 UNK        -0.1971 
     59 N          33.9648  -48.2648  -53.1511 N.am      3 UNK        -0.4139 
     60 C          34.1903  -48.1043  -54.4657 C.2       2 UNK         0.5016 
     61 O          34.2738  -49.0369  -55.2669 O.2       2 UNK        -0.5319 
     62 CA         34.3285  -46.6643  -54.9935 C.3       2 UNK         0.0286 
     63 CB         33.0288  -46.2309  -55.6876 C.3       2 UNK        -0.1963 
     64 N          34.6681  -45.6880  -53.9543 N.am      2 UNK        -0.4790 
     65 C          35.8620  -45.6115  -53.3489 C.2       1 UNK         0.5024 
     66 O          36.8297  -46.3027  -53.6729 O.2       1 UNK        -0.4888 
     67 H67        35.0156  -46.7334  -48.2900 H         1 UNK         0.0892 
     68 H68        36.7125  -46.6900  -48.7737 H         1 UNK         0.0892 
     69 H69        35.6912  -48.0455  -49.2596 H         1 UNK         0.0892 
     70 H70        37.0947  -45.3006  -50.4808 H         1 UNK         0.3107 
     71 H71        36.9573  -44.1185  -52.3117 H         1 UNK         0.0773 
     72 H72        33.9064  -44.0057  -52.0297 H         1 UNK         0.0680 
     73 H73        34.9914  -43.0526  -51.0685 H         1 UNK         0.0680 
     74 H74        33.1517  -41.2738  -52.1648 H         1 UNK         0.0650 
     75 H75        33.4168  -40.5338  -53.7229 H         1 UNK         0.0650 
     76 H76        31.5971  -43.1394  -51.9529 H         1 UNK         0.1397 
     77 H77        29.5889  -44.6199  -55.4245 H         1 UNK         0.1363 
     78 H78        32.7808  -41.7753  -55.8403 H         1 UNK         0.1355 
     79 H79        31.8862  -43.7067  -57.7530 H         1 UNK         0.0707 
     80 H80        31.1145  -42.1411  -57.7045 H         1 UNK         0.0707 
     81 H81        28.5670  -41.6864  -57.8549 H         1 UNK         0.1034 
     82 H82        28.2339  -42.6315  -56.4361 H         1 UNK         0.1034 
     83 H83        26.1550  -42.2908  -57.5824 H         1 UNK         0.0482 
     84 H84        26.4158  -43.5705  -61.4068 H         1 UNK         0.3460 
     85 H85        26.4607  -44.7156  -60.0846 H         1 UNK         0.3460 
     86 H86        27.1326  -45.0027  -57.4275 H         1 UNK         0.2989 
     87 H87        24.7149  -46.3506  -56.2582 H         1 UNK         0.0559 
     88 H88        23.7755  -46.7648  -59.1446 H         1 UNK         0.0848 
     89 H89        22.7667  -46.3140  -57.7772 H         1 UNK         0.0848 
     90 H90        23.5169  -47.8998  -57.8207 H         1 UNK         0.0848 
     91 H91        26.3777  -47.6820  -56.7707 H         1 UNK         0.3144 
     92 H92        28.1084  -48.5678  -59.7778 H         1 UNK         0.0727 
     93 H93        30.0160  -48.3921  -58.1652 H         1 UNK         0.0790 
     94 H94        29.0477  -47.3527  -57.1230 H         1 UNK         0.0790 
     95 H95        29.4983  -46.8161  -58.7359 H         1 UNK         0.0790 
     96 H96        28.1676  -49.7543  -57.2059 H         1 UNK         0.3215 
     97 H97        25.5836  -52.1741  -57.8035 H         1 UNK         0.0863 
     98 H98        27.5421  -53.6069  -57.2254 H         1 UNK         0.0808 
     99 H99        28.6419  -52.2847  -57.6137 H         1 UNK         0.0808 
    100 H100       27.6524  -53.0068  -58.8722 H         1 UNK         0.0808 
    101 H101       27.4273  -51.2403  -55.6755 H         1 UNK         0.3118 
    102 H102       24.8331  -49.8845  -53.7212 H         1 UNK         0.0546 
    103 H103       24.4878  -52.2976  -53.1762 H         1 UNK         0.0828 
    104 H104       25.5017  -51.5167  -51.9757 H         1 UNK         0.0828 
    105 H105       26.2244  -52.5675  -53.1952 H         1 UNK         0.0828 
    106 H106       27.5628  -50.4655  -53.1116 H         1 UNK         0.3005 
    107 H107       28.9958  -47.6430  -54.7063 H         1 UNK         0.1257 
    108 H108       28.7150  -48.1435  -51.7037 H         1 UNK         0.0775 
    109 H109       27.8728  -46.8369  -52.4805 H         1 UNK         0.0775 
    110 H110       28.5985  -44.8527  -53.2027 H         1 UNK         0.0840 
    111 H111       29.4304  -44.3278  -51.7631 H         1 UNK         0.0840 
    112 H112       30.2500  -49.4726  -53.0121 H         1 UNK         0.2987 
    113 H113       30.7623  -51.9862  -53.9179 H         1 UNK         0.0785 
    114 H114       31.8760  -51.2549  -56.6785 H         1 UNK         0.0798 
    115 H115       30.7165  -52.5313  -56.3289 H         1 UNK         0.0798 
    116 H116       32.3589  -52.6594  -55.7273 H         1 UNK         0.0798 
    117 H117       33.0041  -50.2342  -54.6975 H         1 UNK         0.3079 
    118 H118       33.6528  -49.1895  -51.3510 H         1 UNK         0.0794 
    119 H119       35.2048  -50.7831  -53.4579 H         1 UNK         0.0786 
    120 H120       34.8858  -51.2876  -51.8064 H         1 UNK         0.0786 
    121 H121       35.9023  -49.8877  -52.1100 H         1 UNK         0.0786 
    122 H122       33.9101  -47.4234  -52.5825 H         1 UNK         0.3032 
    123 H123       35.1297  -46.6680  -55.7361 H         1 UNK         0.1094 
    124 H124       33.1340  -45.2439  -56.1364 H         1 UNK         0.0794 
    125 H125       32.7593  -46.9220  -56.4876 H         1 UNK         0.0794 
    126 H126       32.1914  -46.1991  -54.9899 H         1 UNK         0.0794 
    127 H127       33.9249  -45.0813  -53.6361 H         1 UNK         0.3016 
@<TRIPOS>BOND
     1    1    2 1    
     2    1   67 1    
     3    1   68 1    
     4    1   69 1    
     5    2    3 2    
     6    2    4 am   BACKBONE|DICT|INTERRES
     7    4    5 1    
     8    4   70 1    
     9    5    6 1    
    10    5   65 1    
    11    5   71 1    
    12    6    7 1    
    13    6   72 1    
    14    6   73 1    
    15    7    8 1    
    16    8    9 1    
    17    8   74 1    
    18    8   75 1    
    19    9   10 ar   
    20    9   14 ar   
    21   10   11 ar   
    22   10   76 1    
    23   11   12 ar   
    24   11   48 1    
    25   12   13 ar   
    26   12   77 1    
    27   13   14 ar   
    28   13   15 1    
    29   14   78 1    
    30   15   16 1    
    31   15   79 1    
    32   15   80 1    
    33   16   17 1    
    34   17   18 1    
    35   17   81 1    
    36   17   82 1    
    37   18   19 1    
    38   18   22 1    
    39   18   83 1    
    40   19   20 am   BACKBONE|DICT|INTERRES
    41   19   21 2    
    42   20   84 1    
    43   20   85 1    
    44   22   23 am   BACKBONE|DICT|INTERRES
    45   22   86 1    
    46   23   24 2    
    47   23   25 1    
    48   25   26 1    
    49   25   27 1    
    50   25   87 1    
    51   26   88 1    
    52   26   89 1    
    53   26   90 1    
    54   27   28 am   BACKBONE|DICT|INTERRES
    55   27   91 1    
    56   28   29 2    
    57   28   30 1    
    58   30   31 1    
    59   30   32 1    
    60   30   92 1    
    61   31   93 1    
    62   31   94 1    
    63   31   95 1    
    64   32   33 am   BACKBONE|DICT|INTERRES
    65   32   96 1    
    66   33   34 2    
    67   33   35 1    
    68   35   36 1    
    69   35   37 1    
    70   35   97 1    
    71   36   98 1    
    72   36   99 1    
    73   36  100 1    
    74   37   38 am   BACKBONE|DICT|INTERRES
    75   37  101 1    
    76   38   39 2    
    77   38   40 1    
    78   40   41 1    
    79   40   42 1    
    80   40  102 1    
    81   41  103 1    
    82   41  104 1    
    83   41  105 1    
    84   42   43 am   BACKBONE|DICT|INTERRES
    85   42  106 1    
    86   43   44 2    
    87   43   45 1    
    88   45   46 1    
    89   45   49 1    
    90   45  107 1    
    91   46   47 1    
    92   46  108 1    
    93   46  109 1    
    94   47   48 1    
    95   48  110 1    
    96   48  111 1    
    97   49   50 am   BACKBONE|DICT|INTERRES
    98   49  112 1    
    99   50   51 2    
   100   50   52 1    
   101   52   53 1    
   102   52   54 1    
   103   52  113 1    
   104   53  114 1    
   105   53  115 1    
   106   53  116 1    
   107   54   55 am   BACKBONE|DICT|INTERRES
   108   54  117 1    
   109   55   56 2    
   110   55   57 1    
   111   57   58 1    
   112   57   59 1    
   113   57  118 1    
   114   58  119 1    
   115   58  120 1    
   116   58  121 1    
   117   59   60 am   BACKBONE|DICT|INTERRES
   118   59  122 1    
   119   60   61 2    
   120   60   62 1    
   121   62   63 1    
   122   62   64 1    
   123   62  123 1    
   124   63  124 1    
   125   63  125 1    
   126   63  126 1    
   127   64   65 am   BACKBONE|DICT|INTERRES
   128   64  127 1    
   129   65   66 2    
@<TRIPOS>SUBSTRUCTURE
     1 UNK         1 GROUP             0       ****    0 ROOT    
