@<TRIPOS>MOLECULE
3R134
127   129    1
SMALL
USER_CHARGES


@<TRIPOS>ATOM
      1 CA         31.5759  -49.5727  -57.9333 C.3       0 UNK        -0.1968 
      2 C          32.1365  -49.1807  -56.5762 C.2       0 UNK         0.4852 
      3 O          32.3328  -50.0459  -55.7227 O.2       0 UNK        -0.5359 
      4 N          32.4436  -47.8915  -56.3762 N.am      1 UNK        -0.4300 
      5 CA         33.0165  -47.3377  -55.1393 C.3       1 UNK         0.0863 
      6 C6         32.7910  -45.8129  -54.9800 C.3       11 UNK        -0.0953 
      7 S7         32.9168  -44.8289  -56.5133 S.3       11 UNK        -0.2369 
      8 C8         32.6912  -43.1313  -55.8803 C.3       11 UNK         0.0226 
      9 C9         31.4832  -43.0026  -54.9598 C.ar      11 UNK        -0.0699 
     10 C10        31.6600  -43.0458  -53.5734 C.ar      11 UNK        -0.0804 
     11 C11        30.5611  -42.9843  -52.7144 C.ar      11 UNK        -0.0871 
     12 C12        29.2788  -42.8382  -53.2499 C.ar      11 UNK        -0.1008 
     13 C13        29.0849  -42.7814  -54.6335 C.ar      11 UNK        -0.0735 
     14 C14        30.1934  -42.8692  -55.4849 C.ar      11 UNK        -0.0945 
     15 C15        27.6689  -42.6724  -55.1875 C.3       11 UNK         0.0169 
     16 S16        27.4283  -41.2081  -56.2457 S.3       11 UNK        -0.2669 
     17 C17        27.3565  -41.9950  -57.8904 C.3       11 UNK        -0.0850 
     18 CA         25.9344  -42.5496  -58.2179 C.3       10 UNK         0.0855 
     19 C          25.0335  -41.5489  -59.0064 C.2       10 UNK         0.5543 
     20 N          24.1307  -42.0142  -59.8613 N.am      10 UNK        -0.7343 
     21 O          25.1293  -40.3376  -58.8249 O.2       10 UNK        -0.5027 
     22 N          25.9894  -43.9157  -58.7652 N.am      10 UNK        -0.4495 
     23 C          26.5478  -44.2811  -59.9249 C.2       10 UNK         0.4903 
     24 O          27.0698  -43.4959  -60.7177 O.2       10 UNK        -0.4860 
     25 CA         26.5726  -45.7941  -60.2041 C.3       9 UNK         0.0227 
     26 CB         26.9118  -46.1197  -61.6708 C.3       9 UNK        -0.1964 
     27 N          27.5511  -46.4430  -59.3299 N.am      9 UNK        -0.4231 
     28 C          27.3394  -46.7800  -58.0513 C.2       9 UNK         0.5014 
     29 O          26.2581  -46.6418  -57.4730 O.2       9 UNK        -0.5270 
     30 CA         28.5669  -47.2844  -57.2788 C.3       8 UNK         0.0284 
     31 CB         29.2442  -46.1224  -56.5394 C.3       8 UNK        -0.1977 
     32 N          28.2265  -48.3240  -56.3100 N.am      8 UNK        -0.4342 
     33 C          27.9011  -49.5843  -56.6265 C.2       8 UNK         0.5039 
     34 O          27.8314  -49.9968  -57.7854 O.2       8 UNK        -0.5547 
     35 CA         27.6475  -50.5694  -55.4720 C.3       7 UNK         0.0281 
     36 CB         28.8037  -51.5805  -55.3684 C.3       7 UNK        -0.1963 
     37 N          27.4890  -49.8965  -54.1805 N.am      7 UNK        -0.4444 
     38 C          26.3128  -49.4961  -53.6762 C.2       7 UNK         0.5104 
     39 O          25.2334  -49.6752  -54.2410 O.2       7 UNK        -0.5100 
     40 CA         26.3246  -48.7857  -52.3078 C.3       6 UNK         0.0396 
     41 CB         25.9281  -49.7688  -51.1947 C.3       6 UNK        -0.1801 
     42 N          27.6092  -48.1711  -51.9639 N.am      6 UNK        -0.4747 
     43 C          28.1438  -47.1090  -52.5842 C.2       6 UNK         0.5012 
     44 O          27.5893  -46.5086  -53.5032 O.2       6 UNK        -0.5003 
     45 CA         29.5552  -46.6752  -52.1336 C.3       5 UNK         0.0782 
     46 C46        29.4526  -45.5991  -51.0250 C.3       11 UNK        -0.0868 
     47 S47        31.0616  -44.8092  -50.6818 S.3       11 UNK        -0.2515 
     48 C48        30.7631  -43.0888  -51.2096 C.3       11 UNK         0.0199 
     49 N          30.4012  -47.8061  -51.7144 N.am      5 UNK        -0.4607 
     50 C          30.7008  -48.8766  -52.4615 C.2       4 UNK         0.5031 
     51 O          30.2732  -49.0539  -53.6019 O.2       4 UNK        -0.5119 
     52 CA         31.5525  -49.9610  -51.7986 C.3       4 UNK         0.0263 
     53 CB         30.6320  -50.9941  -51.1176 C.3       4 UNK        -0.1967 
     54 N          32.4072  -50.6150  -52.7929 N.am      4 UNK        -0.4237 
     55 C          33.4575  -51.3938  -52.4896 C.2       3 UNK         0.4908 
     56 O          33.8376  -51.6086  -51.3377 O.2       3 UNK        -0.5102 
     57 CA         34.2249  -52.0397  -53.6518 C.3       3 UNK         0.0241 
     58 CB         33.3392  -53.0352  -54.4228 C.3       3 UNK        -0.1971 
     59 N          34.7293  -51.0117  -54.5583 N.am      3 UNK        -0.4139 
     60 C          35.9809  -50.5262  -54.5580 C.2       2 UNK         0.5016 
     61 O          36.8877  -50.9664  -53.8502 O.2       2 UNK        -0.5319 
     62 CA         36.2793  -49.3368  -55.4961 C.3       2 UNK         0.0286 
     63 CB         36.8636  -49.8329  -56.8284 C.3       2 UNK        -0.1963 
     64 N          35.0925  -48.5212  -55.7643 N.am      2 UNK        -0.4790 
     65 C          34.4637  -47.7827  -54.8385 C.2       1 UNK         0.5024 
     66 O          34.9565  -47.5202  -53.7407 O.2       1 UNK        -0.4888 
     67 H67        32.2511  -50.2707  -58.4272 H         1 UNK         0.0892 
     68 H68        30.6125  -50.0652  -57.8123 H         1 UNK         0.0892 
     69 H69        31.4423  -48.7106  -58.5860 H         1 UNK         0.0892 
     70 H70        32.2970  -47.2144  -57.1122 H         1 UNK         0.3107 
     71 H71        32.4542  -47.7942  -54.3272 H         1 UNK         0.0773 
     72 H72        33.4528  -45.3827  -54.2260 H         1 UNK         0.0680 
     73 H73        31.7847  -45.6675  -54.5887 H         1 UNK         0.0680 
     74 H74        32.5840  -42.4500  -56.7254 H         1 UNK         0.0650 
     75 H75        33.5994  -42.8270  -55.3576 H         1 UNK         0.0650 
     76 H76        32.6529  -43.1619  -53.1606 H         1 UNK         0.1397 
     77 H77        28.4261  -42.7857  -52.5869 H         1 UNK         0.1363 
     78 H78        30.0546  -42.8443  -56.5562 H         1 UNK         0.1355 
     79 H79        27.4215  -43.5834  -55.7330 H         1 UNK         0.0707 
     80 H80        26.9459  -42.6135  -54.3725 H         1 UNK         0.0707 
     81 H81        27.6885  -41.2797  -58.6453 H         1 UNK         0.1034 
     82 H82        28.1021  -42.7908  -57.9138 H         1 UNK         0.1034 
     83 H83        25.4019  -42.6863  -57.2761 H         1 UNK         0.0482 
     84 H84        23.5435  -41.3664  -60.3628 H         1 UNK         0.3460 
     85 H85        24.0349  -43.0056  -60.0119 H         1 UNK         0.3460 
     86 H86        25.6242  -44.6490  -58.1683 H         1 UNK         0.2989 
     87 H87        25.5775  -46.1934  -59.9959 H         1 UNK         0.0559 
     88 H88        27.9064  -45.7679  -61.9483 H         1 UNK         0.0848 
     89 H89        26.1992  -45.6479  -62.3488 H         1 UNK         0.0848 
     90 H90        26.8723  -47.1930  -61.8577 H         1 UNK         0.0848 
     91 H91        28.4805  -46.5526  -59.7101 H         1 UNK         0.3144 
     92 H92        29.2803  -47.7064  -57.9884 H         1 UNK         0.0727 
     93 H93        29.6111  -45.3682  -57.2364 H         1 UNK         0.0790 
     94 H94        30.0931  -46.4695  -55.9548 H         1 UNK         0.0790 
     95 H95        28.5564  -45.6291  -55.8533 H         1 UNK         0.0790 
     96 H96        28.2058  -48.0497  -55.3376 H         1 UNK         0.3215 
     97 H97        26.7375  -51.1241  -55.7109 H         1 UNK         0.0863 
     98 H98        29.7595  -51.0889  -55.1848 H         1 UNK         0.0808 
     99 H99        28.9076  -52.1494  -56.2932 H         1 UNK         0.0808 
    100 H100       28.6356  -52.2973  -54.5647 H         1 UNK         0.0808 
    101 H101       28.3474  -49.6708  -53.6877 H         1 UNK         0.3118 
    102 H102       25.5735  -47.9938  -52.3459 H         1 UNK         0.0546 
    103 H103       26.6513  -50.5792  -51.0943 H         1 UNK         0.0828 
    104 H104       24.9580  -50.2229  -51.4022 H         1 UNK         0.0828 
    105 H105       25.8474  -49.2671  -50.2303 H         1 UNK         0.0828 
    106 H106       28.1374  -48.6049  -51.2207 H         1 UNK         0.3005 
    107 H107       30.0267  -46.2223  -53.0086 H         1 UNK         0.1257 
    108 H108       29.0830  -46.0396  -50.0971 H         1 UNK         0.0775 
    109 H109       28.7274  -44.8295  -51.2936 H         1 UNK         0.0775 
    110 H110       29.9034  -42.6858  -50.6718 H         1 UNK         0.0840 
    111 H111       31.6171  -42.4768  -50.9155 H         1 UNK         0.0840 
    112 H112       30.7908  -47.7347  -50.7852 H         1 UNK         0.2987 
    113 H113       32.1904  -49.4892  -51.0480 H         1 UNK         0.0785 
    114 H114       29.9676  -50.5168  -50.3962 H         1 UNK         0.0798 
    115 H115       31.2029  -51.7462  -50.5733 H         1 UNK         0.0798 
    116 H116       30.0064  -51.5132  -51.8453 H         1 UNK         0.0798 
    117 H117       32.1586  -50.4444  -53.7664 H         1 UNK         0.3079 
    118 H118       35.0592  -52.6034  -53.2286 H         1 UNK         0.0794 
    119 H119       32.9610  -53.8132  -53.7585 H         1 UNK         0.0786 
    120 H120       33.9022  -53.5305  -55.2139 H         1 UNK         0.0786 
    121 H121       32.4759  -52.5532  -54.8824 H         1 UNK         0.0786 
    122 H122       34.0268  -50.5693  -55.1462 H         1 UNK         0.3032 
    123 H123       37.0250  -48.7083  -55.0033 H         1 UNK         0.1094 
    124 H124       37.7656  -50.4235  -56.6616 H         1 UNK         0.0794 
    125 H125       36.1575  -50.4630  -57.3708 H         1 UNK         0.0794 
    126 H126       37.1389  -49.0002  -57.4760 H         1 UNK         0.0794 
    127 H127       34.6223  -48.6744  -56.6445 H         1 UNK         0.3016 
@<TRIPOS>BOND
     1    1    2 1    
     2    1   67 1    
     3    1   68 1    
     4    1   69 1    
     5    2    3 2    
     6    2    4 am   BACKBONE|DICT|INTERRES
     7    4    5 1    
     8    4   70 1    
     9    5    6 1    
    10    5   65 1    
    11    5   71 1    
    12    6    7 1    
    13    6   72 1    
    14    6   73 1    
    15    7    8 1    
    16    8    9 1    
    17    8   74 1    
    18    8   75 1    
    19    9   10 ar   
    20    9   14 ar   
    21   10   11 ar   
    22   10   76 1    
    23   11   12 ar   
    24   11   48 1    
    25   12   13 ar   
    26   12   77 1    
    27   13   14 ar   
    28   13   15 1    
    29   14   78 1    
    30   15   16 1    
    31   15   79 1    
    32   15   80 1    
    33   16   17 1    
    34   17   18 1    
    35   17   81 1    
    36   17   82 1    
    37   18   19 1    
    38   18   22 1    
    39   18   83 1    
    40   19   20 am   BACKBONE|DICT|INTERRES
    41   19   21 2    
    42   20   84 1    
    43   20   85 1    
    44   22   23 am   BACKBONE|DICT|INTERRES
    45   22   86 1    
    46   23   24 2    
    47   23   25 1    
    48   25   26 1    
    49   25   27 1    
    50   25   87 1    
    51   26   88 1    
    52   26   89 1    
    53   26   90 1    
    54   27   28 am   BACKBONE|DICT|INTERRES
    55   27   91 1    
    56   28   29 2    
    57   28   30 1    
    58   30   31 1    
    59   30   32 1    
    60   30   92 1    
    61   31   93 1    
    62   31   94 1    
    63   31   95 1    
    64   32   33 am   BACKBONE|DICT|INTERRES
    65   32   96 1    
    66   33   34 2    
    67   33   35 1    
    68   35   36 1    
    69   35   37 1    
    70   35   97 1    
    71   36   98 1    
    72   36   99 1    
    73   36  100 1    
    74   37   38 am   BACKBONE|DICT|INTERRES
    75   37  101 1    
    76   38   39 2    
    77   38   40 1    
    78   40   41 1    
    79   40   42 1    
    80   40  102 1    
    81   41  103 1    
    82   41  104 1    
    83   41  105 1    
    84   42   43 am   BACKBONE|DICT|INTERRES
    85   42  106 1    
    86   43   44 2    
    87   43   45 1    
    88   45   46 1    
    89   45   49 1    
    90   45  107 1    
    91   46   47 1    
    92   46  108 1    
    93   46  109 1    
    94   47   48 1    
    95   48  110 1    
    96   48  111 1    
    97   49   50 am   BACKBONE|DICT|INTERRES
    98   49  112 1    
    99   50   51 2    
   100   50   52 1    
   101   52   53 1    
   102   52   54 1    
   103   52  113 1    
   104   53  114 1    
   105   53  115 1    
   106   53  116 1    
   107   54   55 am   BACKBONE|DICT|INTERRES
   108   54  117 1    
   109   55   56 2    
   110   55   57 1    
   111   57   58 1    
   112   57   59 1    
   113   57  118 1    
   114   58  119 1    
   115   58  120 1    
   116   58  121 1    
   117   59   60 am   BACKBONE|DICT|INTERRES
   118   59  122 1    
   119   60   61 2    
   120   60   62 1    
   121   62   63 1    
   122   62   64 1    
   123   62  123 1    
   124   63  124 1    
   125   63  125 1    
   126   63  126 1    
   127   64   65 am   BACKBONE|DICT|INTERRES
   128   64  127 1    
   129   65   66 2    
@<TRIPOS>SUBSTRUCTURE
     1 UNK         1 GROUP             0       ****    0 ROOT    
