@<TRIPOS>MOLECULE
3R134
127   129    1
SMALL
USER_CHARGES


@<TRIPOS>ATOM
      1 CA         37.7988  -45.2823  -49.3522 C.3       0 UNK        -0.1968 
      2 C          36.7290  -45.6315  -48.3198 C.2       0 UNK         0.4852 
      3 O          37.0694  -45.8950  -47.1670 O.2       0 UNK        -0.5359 
      4 N          35.4336  -45.6348  -48.6674 N.am      1 UNK        -0.4300 
      5 CA         34.8719  -45.4239  -50.0069 C.3       1 UNK         0.0863 
      6 C6         33.3763  -45.0171  -49.9155 C.3       11 UNK        -0.0953 
      7 S7         32.8841  -43.9054  -51.2741 S.3       11 UNK        -0.2369 
      8 C8         31.4678  -44.7939  -51.9886 C.3       11 UNK         0.0226 
      9 C9         31.1351  -44.2601  -53.3732 C.ar      11 UNK        -0.0699 
     10 C10        32.0031  -44.5219  -54.4342 C.ar      11 UNK        -0.0804 
     11 C11        31.7269  -44.0441  -55.7162 C.ar      11 UNK        -0.0871 
     12 C12        30.5686  -43.2961  -55.9365 C.ar      11 UNK        -0.1008 
     13 C13        29.6795  -43.0401  -54.8880 C.ar      11 UNK        -0.0735 
     14 C14        29.9696  -43.5212  -53.6054 C.ar      11 UNK        -0.0945 
     15 C15        28.4178  -42.2259  -55.1394 C.3       11 UNK         0.0169 
     16 S16        27.0553  -43.2548  -55.7738 S.3       11 UNK        -0.2669 
     17 C17        27.5846  -43.5451  -57.4994 C.3       11 UNK        -0.0850 
     18 CA         26.4250  -43.9897  -58.4305 C.3       10 UNK         0.0855 
     19 C          26.8962  -44.1331  -59.9083 C.2       10 UNK         0.5543 
     20 N          26.6217  -45.2340  -60.5999 N.am      10 UNK        -0.7343 
     21 O          27.5147  -43.2176  -60.4456 O.2       10 UNK        -0.5027 
     22 N          25.7451  -45.1884  -57.9182 N.am      10 UNK        -0.4495 
     23 C          24.4341  -45.4282  -58.0314 C.2       10 UNK         0.4903 
     24 O          23.6370  -44.6422  -58.5473 O.2       10 UNK        -0.4860 
     25 CA         23.9318  -46.7707  -57.4686 C.3       9 UNK         0.0227 
     26 CB         22.5060  -47.1281  -57.9409 C.3       9 UNK        -0.1964 
     27 N          24.8535  -47.8877  -57.7077 N.am      9 UNK        -0.4231 
     28 C          25.2533  -48.3816  -58.8907 C.2       9 UNK         0.5014 
     29 O          24.9277  -47.8876  -59.9717 O.2       9 UNK        -0.5270 
     30 CA         26.1778  -49.6209  -58.8918 C.3       8 UNK         0.0284 
     31 CB         27.3576  -49.4300  -59.8612 C.3       8 UNK        -0.1977 
     32 N          26.6987  -49.9744  -57.5676 N.am      8 UNK        -0.4342 
     33 C          26.0250  -50.6295  -56.6124 C.2       8 UNK         0.5039 
     34 O          24.9040  -51.1118  -56.7740 O.2       8 UNK        -0.5547 
     35 CA         26.6826  -50.6944  -55.2212 C.3       7 UNK         0.0281 
     36 CB         27.5435  -51.9593  -55.0778 C.3       7 UNK        -0.1963 
     37 N          27.4906  -49.5081  -54.9153 N.am      7 UNK        -0.4444 
     38 C          27.0107  -48.2597  -54.8100 C.2       7 UNK         0.5104 
     39 O          25.8159  -47.9791  -54.8979 O.2       7 UNK        -0.5100 
     40 CA         28.0407  -47.1305  -54.6423 C.3       6 UNK         0.0396 
     41 CB         28.4933  -47.0254  -53.1787 C.3       6 UNK        -0.1801 
     42 N          29.1939  -47.3023  -55.5348 N.am      6 UNK        -0.4747 
     43 C          29.1222  -47.1851  -56.8705 C.2       6 UNK         0.5012 
     44 O          28.0948  -46.8524  -57.4612 O.2       6 UNK        -0.5003 
     45 CA         30.3597  -47.5781  -57.7052 C.3       5 UNK         0.0782 
     46 C46        31.2167  -46.3640  -58.1694 C.3       11 UNK        -0.0868 
     47 S47        32.7714  -46.0971  -57.2422 S.3       11 UNK        -0.2515 
     48 C48        32.6965  -44.3237  -56.8514 C.3       11 UNK         0.0199 
     49 N          31.1439  -48.6420  -57.0734 N.am      5 UNK        -0.4607 
     50 C          30.7518  -49.9154  -56.9663 C.2       4 UNK         0.5031 
     51 O          29.6943  -50.3439  -57.4267 O.2       4 UNK        -0.5119 
     52 CA         31.6774  -50.8470  -56.1677 C.3       4 UNK         0.0263 
     53 CB         32.8889  -51.2694  -57.0137 C.3       4 UNK        -0.1967 
     54 N          32.1392  -50.2543  -54.9069 N.am      4 UNK        -0.4237 
     55 C          31.3426  -49.8770  -53.8999 C.2       3 UNK         0.4908 
     56 O          30.1165  -49.9603  -53.9471 O.2       3 UNK        -0.5102 
     57 CA         31.9896  -49.3033  -52.6261 C.3       3 UNK         0.0241 
     58 CB         32.3573  -50.4360  -51.6490 C.3       3 UNK        -0.1971 
     59 N          33.1240  -48.3874  -52.8226 N.am      3 UNK        -0.4139 
     60 C          34.3405  -48.6360  -53.3286 C.2       2 UNK         0.5016 
     61 O          34.6614  -49.7007  -53.8582 O.2       2 UNK        -0.5319 
     62 CA         35.3854  -47.5071  -53.2272 C.3       2 UNK         0.0286 
     63 CB         35.6002  -46.8438  -54.5971 C.3       2 UNK        -0.1963 
     64 N          35.0890  -46.4707  -52.2244 N.am      2 UNK        -0.4790 
     65 C          35.0863  -46.6695  -50.8975 C.2       1 UNK         0.5024 
     66 O          35.2496  -47.7757  -50.3780 O.2       1 UNK        -0.4888 
     67 H67        38.7843  -45.2639  -48.8871 H         1 UNK         0.0892 
     68 H68        37.8275  -46.0204  -50.1528 H         1 UNK         0.0892 
     69 H69        37.6224  -44.2973  -49.7829 H         1 UNK         0.0892 
     70 H70        34.7598  -45.8985  -47.9631 H         1 UNK         0.3107 
     71 H71        35.4215  -44.5953  -50.4570 H         1 UNK         0.0773 
     72 H72        33.1935  -44.4582  -48.9959 H         1 UNK         0.0680 
     73 H73        32.7201  -45.8882  -49.8611 H         1 UNK         0.0680 
     74 H74        30.6121  -44.7036  -51.3177 H         1 UNK         0.0650 
     75 H75        31.6954  -45.8573  -52.0632 H         1 UNK         0.0650 
     76 H76        32.9022  -45.0932  -54.2586 H         1 UNK         0.1397 
     77 H77        30.3581  -42.9123  -56.9248 H         1 UNK         0.1363 
     78 H78        29.2883  -43.3205  -52.7900 H         1 UNK         0.1355 
     79 H79        28.0915  -41.7521  -54.2124 H         1 UNK         0.0707 
     80 H80        28.6244  -41.4121  -55.8360 H         1 UNK         0.0707 
     81 H81        28.3802  -44.2892  -57.4994 H         1 UNK         0.1034 
     82 H82        28.0305  -42.6236  -57.8783 H         1 UNK         0.1034 
     83 H83        25.7060  -43.1685  -58.4402 H         1 UNK         0.0482 
     84 H84        26.0869  -45.9862  -60.1863 H         1 UNK         0.3460 
     85 H85        26.9295  -45.3036  -61.5565 H         1 UNK         0.3460 
     86 H86        26.3588  -45.9034  -57.5397 H         1 UNK         0.2989 
     87 H87        23.8922  -46.6420  -56.3862 H         1 UNK         0.0559 
     88 H88        21.7906  -46.3608  -57.6426 H         1 UNK         0.0848 
     89 H89        22.1684  -48.0691  -57.5067 H         1 UNK         0.0848 
     90 H90        22.4498  -47.2196  -59.0261 H         1 UNK         0.0848 
     91 H91        25.2248  -48.3112  -56.8644 H         1 UNK         0.3144 
     92 H92        25.5811  -50.4596  -59.2558 H         1 UNK         0.0727 
     93 H93        28.0487  -50.2724  -59.8248 H         1 UNK         0.0790 
     94 H94        27.9163  -48.5221  -59.6377 H         1 UNK         0.0790 
     95 H95        27.0065  -49.3451  -60.8903 H         1 UNK         0.0790 
     96 H96        27.6472  -49.6820  -57.3605 H         1 UNK         0.3215 
     97 H97        25.8800  -50.7438  -54.4822 H         1 UNK         0.0863 
     98 H98        27.9623  -52.0418  -54.0746 H         1 UNK         0.0808 
     99 H99        28.3718  -51.9690  -55.7861 H         1 UNK         0.0808 
    100 H100       26.9502  -52.8568  -55.2574 H         1 UNK         0.0808 
    101 H101       28.4860  -49.6584  -54.7585 H         1 UNK         0.3118 
    102 H102       27.5533  -46.1896  -54.9069 H         1 UNK         0.0546 
    103 H103       28.9328  -47.9520  -52.8128 H         1 UNK         0.0828 
    104 H104       27.6467  -46.7944  -52.5310 H         1 UNK         0.0828 
    105 H105       29.2229  -46.2315  -53.0466 H         1 UNK         0.0828 
    106 H106       30.0578  -47.6184  -55.1210 H         1 UNK         0.3005 
    107 H107       29.9448  -48.0121  -58.6172 H         1 UNK         0.1257 
    108 H108       31.5116  -46.5230  -59.2077 H         1 UNK         0.0775 
    109 H109       30.6287  -45.4443  -58.1864 H         1 UNK         0.0775 
    110 H110       33.6917  -43.9865  -56.5579 H         1 UNK         0.0840 
    111 H111       32.4356  -43.7600  -57.7485 H         1 UNK         0.0840 
    112 H112       32.0309  -48.3599  -56.6807 H         1 UNK         0.2987 
    113 H113       31.1044  -51.7430  -55.9200 H         1 UNK         0.0785 
    114 H114       33.4978  -52.0073  -56.4910 H         1 UNK         0.0798 
    115 H115       33.5291  -50.4208  -57.2581 H         1 UNK         0.0798 
    116 H116       32.5702  -51.7211  -57.9542 H         1 UNK         0.0798 
    117 H117       33.1435  -50.1669  -54.7598 H         1 UNK         0.3079 
    118 H118       31.2195  -48.7020  -52.1407 H         1 UNK         0.0794 
    119 H119       31.4876  -51.0552  -51.4243 H         1 UNK         0.0786 
    120 H120       32.7254  -50.0384  -50.7030 H         1 UNK         0.0786 
    121 H121       33.1262  -51.0930  -52.0570 H         1 UNK         0.0786 
    122 H122       32.9913  -47.4608  -52.4470 H         1 UNK         0.3032 
    123 H123       36.3240  -47.9848  -52.9362 H         1 UNK         0.1094 
    124 H124       34.7058  -46.3302  -54.9453 H         1 UNK         0.0794 
    125 H125       36.4137  -46.1188  -54.5653 H         1 UNK         0.0794 
    126 H126       35.8614  -47.5849  -55.3542 H         1 UNK         0.0794 
    127 H127       34.9459  -45.5321  -52.5714 H         1 UNK         0.3016 
@<TRIPOS>BOND
     1    1    2 1    
     2    1   67 1    
     3    1   68 1    
     4    1   69 1    
     5    2    3 2    
     6    2    4 am   BACKBONE|DICT|INTERRES
     7    4    5 1    
     8    4   70 1    
     9    5    6 1    
    10    5   65 1    
    11    5   71 1    
    12    6    7 1    
    13    6   72 1    
    14    6   73 1    
    15    7    8 1    
    16    8    9 1    
    17    8   74 1    
    18    8   75 1    
    19    9   10 ar   
    20    9   14 ar   
    21   10   11 ar   
    22   10   76 1    
    23   11   12 ar   
    24   11   48 1    
    25   12   13 ar   
    26   12   77 1    
    27   13   14 ar   
    28   13   15 1    
    29   14   78 1    
    30   15   16 1    
    31   15   79 1    
    32   15   80 1    
    33   16   17 1    
    34   17   18 1    
    35   17   81 1    
    36   17   82 1    
    37   18   19 1    
    38   18   22 1    
    39   18   83 1    
    40   19   20 am   BACKBONE|DICT|INTERRES
    41   19   21 2    
    42   20   84 1    
    43   20   85 1    
    44   22   23 am   BACKBONE|DICT|INTERRES
    45   22   86 1    
    46   23   24 2    
    47   23   25 1    
    48   25   26 1    
    49   25   27 1    
    50   25   87 1    
    51   26   88 1    
    52   26   89 1    
    53   26   90 1    
    54   27   28 am   BACKBONE|DICT|INTERRES
    55   27   91 1    
    56   28   29 2    
    57   28   30 1    
    58   30   31 1    
    59   30   32 1    
    60   30   92 1    
    61   31   93 1    
    62   31   94 1    
    63   31   95 1    
    64   32   33 am   BACKBONE|DICT|INTERRES
    65   32   96 1    
    66   33   34 2    
    67   33   35 1    
    68   35   36 1    
    69   35   37 1    
    70   35   97 1    
    71   36   98 1    
    72   36   99 1    
    73   36  100 1    
    74   37   38 am   BACKBONE|DICT|INTERRES
    75   37  101 1    
    76   38   39 2    
    77   38   40 1    
    78   40   41 1    
    79   40   42 1    
    80   40  102 1    
    81   41  103 1    
    82   41  104 1    
    83   41  105 1    
    84   42   43 am   BACKBONE|DICT|INTERRES
    85   42  106 1    
    86   43   44 2    
    87   43   45 1    
    88   45   46 1    
    89   45   49 1    
    90   45  107 1    
    91   46   47 1    
    92   46  108 1    
    93   46  109 1    
    94   47   48 1    
    95   48  110 1    
    96   48  111 1    
    97   49   50 am   BACKBONE|DICT|INTERRES
    98   49  112 1    
    99   50   51 2    
   100   50   52 1    
   101   52   53 1    
   102   52   54 1    
   103   52  113 1    
   104   53  114 1    
   105   53  115 1    
   106   53  116 1    
   107   54   55 am   BACKBONE|DICT|INTERRES
   108   54  117 1    
   109   55   56 2    
   110   55   57 1    
   111   57   58 1    
   112   57   59 1    
   113   57  118 1    
   114   58  119 1    
   115   58  120 1    
   116   58  121 1    
   117   59   60 am   BACKBONE|DICT|INTERRES
   118   59  122 1    
   119   60   61 2    
   120   60   62 1    
   121   62   63 1    
   122   62   64 1    
   123   62  123 1    
   124   63  124 1    
   125   63  125 1    
   126   63  126 1    
   127   64   65 am   BACKBONE|DICT|INTERRES
   128   64  127 1    
   129   65   66 2    
@<TRIPOS>SUBSTRUCTURE
     1 UNK         1 GROUP             0       ****    0 ROOT    
