@<TRIPOS>MOLECULE
3R134
127   129    1
SMALL
USER_CHARGES


@<TRIPOS>ATOM
      1 CA         32.6428  -46.9476  -49.7095 C.3       0 UNK        -0.1968 
      2 C          33.7007  -46.2463  -50.5485 C.2       0 UNK         0.4852 
      3 O          33.8828  -45.0350  -50.4174 O.2       0 UNK        -0.5359 
      4 N          34.3978  -46.9990  -51.4034 N.am      1 UNK        -0.4300 
      5 CA         35.4425  -46.5133  -52.3051 C.3       1 UNK         0.0863 
      6 C6         34.8689  -45.7571  -53.5405 C.3       11 UNK        -0.0953 
      7 S7         33.6248  -46.7130  -54.4838 S.3       11 UNK        -0.2369 
      8 C8         33.1103  -45.4942  -55.7375 C.3       11 UNK         0.0226 
      9 C9         31.9738  -44.5529  -55.3306 C.ar      11 UNK        -0.0699 
     10 C10        31.6386  -44.2815  -53.9959 C.ar      11 UNK        -0.0804 
     11 C11        30.5972  -43.4000  -53.6863 C.ar      11 UNK        -0.0871 
     12 C12        29.8921  -42.7779  -54.7184 C.ar      11 UNK        -0.1008 
     13 C13        30.2058  -43.0436  -56.0531 C.ar      11 UNK        -0.0735 
     14 C14        31.2497  -43.9242  -56.3487 C.ar      11 UNK        -0.0945 
     15 C15        29.4223  -42.3793  -57.1763 C.3       11 UNK         0.0169 
     16 S16        27.6468  -42.7616  -57.0620 S.3       11 UNK        -0.2669 
     17 C17        27.1030  -42.4631  -58.7791 C.3       11 UNK        -0.0850 
     18 CA         25.7278  -43.1129  -59.0823 C.3       10 UNK         0.0855 
     19 C          25.3318  -42.8731  -60.5652 C.2       10 UNK         0.5543 
     20 N          24.5361  -41.8478  -60.8370 N.am      10 UNK        -0.7343 
     21 O          25.7803  -43.5740  -61.4702 O.2       10 UNK        -0.5027 
     22 N          25.7231  -44.5289  -58.6900 N.am      10 UNK        -0.4495 
     23 C          24.6986  -45.3844  -58.7631 C.2       10 UNK         0.4903 
     24 O          23.5855  -45.0861  -59.1985 O.2       10 UNK        -0.4860 
     25 CA         24.9322  -46.7992  -58.1953 C.3       9 UNK         0.0227 
     26 CB         24.2727  -47.8951  -59.0585 C.3       9 UNK        -0.1964 
     27 N          26.3357  -47.1288  -57.9054 N.am      9 UNK        -0.4231 
     28 C          27.3427  -47.3081  -58.7756 C.2       9 UNK         0.5014 
     29 O          27.2562  -47.1168  -59.9886 O.2       9 UNK        -0.5270 
     30 CA         28.6707  -47.8207  -58.1874 C.3       8 UNK         0.0284 
     31 CB         29.5041  -46.6615  -57.6159 C.3       8 UNK        -0.1977 
     32 N          28.4631  -48.8383  -57.1530 N.am      8 UNK        -0.4342 
     33 C          27.9089  -50.0426  -57.3643 C.2       8 UNK         0.5039 
     34 O          27.6338  -50.4883  -58.4789 O.2       8 UNK        -0.5547 
     35 CA         27.5672  -50.8762  -56.1193 C.3       7 UNK         0.0281 
     36 CB         28.7822  -51.6892  -55.6422 C.3       7 UNK        -0.1963 
     37 N          27.0622  -50.0313  -55.0335 N.am      7 UNK        -0.4444 
     38 C          25.8151  -49.5392  -54.9820 C.2       7 UNK         0.5104 
     39 O          24.9371  -49.8134  -55.7996 O.2       7 UNK        -0.5100 
     40 CA         25.4843  -48.5712  -53.8309 C.3       6 UNK         0.0396 
     41 CB         24.8516  -49.3340  -52.6565 C.3       6 UNK        -0.1801 
     42 N          26.6458  -47.8195  -53.3484 N.am      6 UNK        -0.4747 
     43 C          27.2640  -46.8424  -54.0292 C.2       6 UNK         0.5012 
     44 O          26.9016  -46.4514  -55.1387 O.2       6 UNK        -0.5003 
     45 CA         28.5402  -46.2637  -53.3815 C.3       5 UNK         0.0782 
     46 C46        28.1949  -45.1182  -52.3913 C.3       11 UNK        -0.0868 
     47 S47        29.6193  -44.5928  -51.3679 S.3       11 UNK        -0.2515 
     48 C48        30.2278  -43.1139  -52.2377 C.3       11 UNK         0.0199 
     49 N          29.3577  -47.3097  -52.7542 N.am      5 UNK        -0.4607 
     50 C          29.9185  -48.3380  -53.3959 C.2       4 UNK         0.5031 
     51 O          29.7438  -48.5811  -54.5924 O.2       4 UNK        -0.5119 
     52 CA         30.7663  -49.2821  -52.5426 C.3       4 UNK         0.0263 
     53 CB         29.8781  -50.3105  -51.8227 C.3       4 UNK        -0.1967 
     54 N          31.7024  -49.9795  -53.4161 N.am      4 UNK        -0.4237 
     55 C          33.0070  -50.1412  -53.1801 C.2       3 UNK         0.4908 
     56 O          33.5608  -49.7690  -52.1416 O.2       3 UNK        -0.5102 
     57 CA         33.8505  -50.7909  -54.2922 C.3       3 UNK         0.0241 
     58 CB         33.1046  -50.9857  -55.6302 C.3       3 UNK        -0.1971 
     59 N          35.0034  -49.9268  -54.5075 N.am      3 UNK        -0.4139 
     60 C          36.2922  -50.2826  -54.4478 C.2       2 UNK         0.5016 
     61 O          36.6892  -51.4466  -54.3817 O.2       2 UNK        -0.5319 
     62 CA         37.3130  -49.1254  -54.4299 C.3       2 UNK         0.0286 
     63 CB         37.8667  -48.8699  -55.8409 C.3       2 UNK        -0.1963 
     64 N          36.7286  -47.8835  -53.9066 N.am      2 UNK        -0.4790 
     65 C          36.3669  -47.7042  -52.6272 C.2       1 UNK         0.5024 
     66 O          36.7051  -48.4680  -51.7200 O.2       1 UNK        -0.4888 
     67 H67        32.6767  -48.0298  -49.8356 H         1 UNK         0.0892 
     68 H68        32.7942  -46.7270  -48.6532 H         1 UNK         0.0892 
     69 H69        31.6498  -46.5997  -49.9914 H         1 UNK         0.0892 
     70 H70        34.2208  -47.9993  -51.4687 H         1 UNK         0.3107 
     71 H71        36.0673  -45.8120  -51.7481 H         1 UNK         0.0773 
     72 H72        35.6679  -45.4402  -54.2126 H         1 UNK         0.0680 
     73 H73        34.4085  -44.8287  -53.2031 H         1 UNK         0.0680 
     74 H74        32.8017  -46.0578  -56.6192 H         1 UNK         0.0650 
     75 H75        33.9730  -44.9003  -56.0419 H         1 UNK         0.0650 
     76 H76        32.1690  -44.7574  -53.1844 H         1 UNK         0.1397 
     77 H77        29.0851  -42.0955  -54.4881 H         1 UNK         0.1363 
     78 H78        31.5006  -44.1257  -57.3812 H         1 UNK         0.1355 
     79 H79        29.5634  -41.2983  -57.1308 H         1 UNK         0.0707 
     80 H80        29.8041  -42.7040  -58.1456 H         1 UNK         0.0707 
     81 H81        27.0631  -41.3850  -58.9468 H         1 UNK         0.1034 
     82 H82        27.8593  -42.8536  -59.4633 H         1 UNK         0.1034 
     83 H83        24.9818  -42.6237  -58.4528 H         1 UNK         0.0482 
     84 H84        24.1724  -41.2603  -60.1025 H         1 UNK         0.3460 
     85 H85        24.2824  -41.6647  -61.7955 H         1 UNK         0.3460 
     86 H86        26.5885  -44.8690  -58.2992 H         1 UNK         0.2989 
     87 H87        24.4327  -46.8100  -57.2255 H         1 UNK         0.0559 
     88 H88        24.6740  -47.9092  -60.0722 H         1 UNK         0.0848 
     89 H89        23.1964  -47.7381  -59.1384 H         1 UNK         0.0848 
     90 H90        24.4225  -48.8836  -58.6234 H         1 UNK         0.0848 
     91 H91        26.5589  -47.2007  -56.9159 H         1 UNK         0.3144 
     92 H92        29.2389  -48.2826  -58.9974 H         1 UNK         0.0727 
     93 H93        28.9880  -46.1447  -56.8066 H         1 UNK         0.0790 
     94 H94        29.7195  -45.9205  -58.3867 H         1 UNK         0.0790 
     95 H95        30.4597  -47.0140  -57.2271 H         1 UNK         0.0790 
     96 H96        28.7497  -48.5993  -56.2066 H         1 UNK         0.3215 
     97 H97        26.7832  -51.5840  -56.3988 H         1 UNK         0.0863 
     98 H98        28.5402  -52.2882  -54.7642 H         1 UNK         0.0808 
     99 H99        29.6300  -51.0532  -55.3937 H         1 UNK         0.0808 
    100 H100       29.1144  -52.3769  -56.4209 H         1 UNK         0.0808 
    101 H101       27.7349  -49.7125  -54.3516 H         1 UNK         0.3118 
    102 H102       24.7499  -47.8548  -54.2056 H         1 UNK         0.0546 
    103 H103       25.5424  -50.0589  -52.2242 H         1 UNK         0.0828 
    104 H104       23.9656  -49.8823  -52.9802 H         1 UNK         0.0828 
    105 H105       24.5369  -48.6544  -51.8644 H         1 UNK         0.0828 
    106 H106       27.0161  -48.0802  -52.4455 H         1 UNK         0.3005 
    107 H107       29.1371  -45.8405  -54.1929 H         1 UNK         0.1257 
    108 H108       27.4092  -45.4320  -51.7012 H         1 UNK         0.0775 
    109 H109       27.7950  -44.2571  -52.9302 H         1 UNK         0.0775 
    110 H110       29.4720  -42.3295  -52.1725 H         1 UNK         0.0840 
    111 H111       31.1072  -42.7354  -51.7147 H         1 UNK         0.0840 
    112 H112       29.5500  -47.1737  -51.7723 H         1 UNK         0.2987 
    113 H113       31.3042  -48.6825  -51.8062 H         1 UNK         0.0785 
    114 H114       29.1656  -49.8215  -51.1573 H         1 UNK         0.0798 
    115 H115       30.4771  -50.9860  -51.2117 H         1 UNK         0.0798 
    116 H116       29.3076  -50.9176  -52.5267 H         1 UNK         0.0798 
    117 H117       31.3388  -50.2004  -54.3332 H         1 UNK         0.3079 
    118 H118       34.1702  -51.7665  -53.9203 H         1 UNK         0.0794 
    119 H119       32.2658  -51.6747  -55.5231 H         1 UNK         0.0786 
    120 H120       33.7670  -51.4126  -56.3836 H         1 UNK         0.0786 
    121 H121       32.7227  -50.0439  -56.0281 H         1 UNK         0.0786 
    122 H122       34.7963  -48.9371  -54.5200 H         1 UNK         0.3032 
    123 H123       38.1392  -49.4239  -53.7802 H         1 UNK         0.1094 
    124 H124       38.6308  -48.0922  -55.8326 H         1 UNK         0.0794 
    125 H125       38.3285  -49.7713  -56.2464 H         1 UNK         0.0794 
    126 H126       37.0827  -48.5650  -56.5353 H         1 UNK         0.0794 
    127 H127       36.4300  -47.2004  -54.5889 H         1 UNK         0.3016 
@<TRIPOS>BOND
     1    1    2 1    
     2    1   67 1    
     3    1   68 1    
     4    1   69 1    
     5    2    3 2    
     6    2    4 am   BACKBONE|DICT|INTERRES
     7    4    5 1    
     8    4   70 1    
     9    5    6 1    
    10    5   65 1    
    11    5   71 1    
    12    6    7 1    
    13    6   72 1    
    14    6   73 1    
    15    7    8 1    
    16    8    9 1    
    17    8   74 1    
    18    8   75 1    
    19    9   10 ar   
    20    9   14 ar   
    21   10   11 ar   
    22   10   76 1    
    23   11   12 ar   
    24   11   48 1    
    25   12   13 ar   
    26   12   77 1    
    27   13   14 ar   
    28   13   15 1    
    29   14   78 1    
    30   15   16 1    
    31   15   79 1    
    32   15   80 1    
    33   16   17 1    
    34   17   18 1    
    35   17   81 1    
    36   17   82 1    
    37   18   19 1    
    38   18   22 1    
    39   18   83 1    
    40   19   20 am   BACKBONE|DICT|INTERRES
    41   19   21 2    
    42   20   84 1    
    43   20   85 1    
    44   22   23 am   BACKBONE|DICT|INTERRES
    45   22   86 1    
    46   23   24 2    
    47   23   25 1    
    48   25   26 1    
    49   25   27 1    
    50   25   87 1    
    51   26   88 1    
    52   26   89 1    
    53   26   90 1    
    54   27   28 am   BACKBONE|DICT|INTERRES
    55   27   91 1    
    56   28   29 2    
    57   28   30 1    
    58   30   31 1    
    59   30   32 1    
    60   30   92 1    
    61   31   93 1    
    62   31   94 1    
    63   31   95 1    
    64   32   33 am   BACKBONE|DICT|INTERRES
    65   32   96 1    
    66   33   34 2    
    67   33   35 1    
    68   35   36 1    
    69   35   37 1    
    70   35   97 1    
    71   36   98 1    
    72   36   99 1    
    73   36  100 1    
    74   37   38 am   BACKBONE|DICT|INTERRES
    75   37  101 1    
    76   38   39 2    
    77   38   40 1    
    78   40   41 1    
    79   40   42 1    
    80   40  102 1    
    81   41  103 1    
    82   41  104 1    
    83   41  105 1    
    84   42   43 am   BACKBONE|DICT|INTERRES
    85   42  106 1    
    86   43   44 2    
    87   43   45 1    
    88   45   46 1    
    89   45   49 1    
    90   45  107 1    
    91   46   47 1    
    92   46  108 1    
    93   46  109 1    
    94   47   48 1    
    95   48  110 1    
    96   48  111 1    
    97   49   50 am   BACKBONE|DICT|INTERRES
    98   49  112 1    
    99   50   51 2    
   100   50   52 1    
   101   52   53 1    
   102   52   54 1    
   103   52  113 1    
   104   53  114 1    
   105   53  115 1    
   106   53  116 1    
   107   54   55 am   BACKBONE|DICT|INTERRES
   108   54  117 1    
   109   55   56 2    
   110   55   57 1    
   111   57   58 1    
   112   57   59 1    
   113   57  118 1    
   114   58  119 1    
   115   58  120 1    
   116   58  121 1    
   117   59   60 am   BACKBONE|DICT|INTERRES
   118   59  122 1    
   119   60   61 2    
   120   60   62 1    
   121   62   63 1    
   122   62   64 1    
   123   62  123 1    
   124   63  124 1    
   125   63  125 1    
   126   63  126 1    
   127   64   65 am   BACKBONE|DICT|INTERRES
   128   64  127 1    
   129   65   66 2    
@<TRIPOS>SUBSTRUCTURE
     1 UNK         1 GROUP             0       ****    0 ROOT    
