@<TRIPOS>MOLECULE
3R134
127   129    1
SMALL
USER_CHARGES


@<TRIPOS>ATOM
      1 CA         29.5763  -45.2913  -54.1574 C.3       0 UNK        -0.1968 
      2 C          30.2926  -45.1862  -52.8206 C.2       0 UNK         0.4852 
      3 O          29.6497  -45.2420  -51.7706 O.2       0 UNK        -0.5359 
      4 N          31.6246  -45.0535  -52.8608 N.am      1 UNK        -0.4300 
      5 CA         32.5193  -45.1360  -51.6987 C.3       1 UNK         0.0863 
      6 C6         33.8254  -44.3211  -51.9139 C.3       11 UNK        -0.0953 
      7 S7         33.5156  -42.5280  -52.0417 S.3       11 UNK        -0.2369 
      8 C8         34.1643  -42.1383  -53.6968 C.3       11 UNK         0.0226 
      9 C9         33.2374  -42.6377  -54.7928 C.ar      11 UNK        -0.0699 
     10 C10        33.5495  -43.7941  -55.5139 C.ar      11 UNK        -0.0804 
     11 C11        32.6872  -44.2573  -56.5109 C.ar      11 UNK        -0.0871 
     12 C12        31.5113  -43.5537  -56.7865 C.ar      11 UNK        -0.1008 
     13 C13        31.1822  -42.4015  -56.0654 C.ar      11 UNK        -0.0735 
     14 C14        32.0592  -41.9414  -55.0789 C.ar      11 UNK        -0.0945 
     15 C15        29.8710  -41.6713  -56.3308 C.3       11 UNK         0.0169 
     16 S16        28.7647  -41.7681  -54.8862 S.3       11 UNK        -0.2669 
     17 C17        27.1439  -41.3200  -55.5913 C.3       11 UNK        -0.0850 
     18 CA         26.2166  -42.5576  -55.7209 C.3       10 UNK         0.0855 
     19 C          24.7470  -42.1252  -55.9609 C.2       10 UNK         0.5543 
     20 N          23.9519  -42.0154  -54.9061 N.am      10 UNK        -0.7343 
     21 O          24.3355  -41.8481  -57.0863 O.2       10 UNK        -0.5027 
     22 N          26.6705  -43.4557  -56.7903 N.am      10 UNK        -0.4495 
     23 C          26.5118  -44.7831  -56.7996 C.2       10 UNK         0.4903 
     24 O          26.0689  -45.4363  -55.8521 O.2       10 UNK        -0.4860 
     25 CA         26.9627  -45.4842  -58.0925 C.3       9 UNK         0.0227 
     26 CB         28.4923  -45.4276  -58.2359 C.3       9 UNK        -0.1964 
     27 N          26.5323  -46.8823  -58.1603 N.am      9 UNK        -0.4231 
     28 C          25.3005  -47.2834  -58.5011 C.2       9 UNK         0.5014 
     29 O          24.3845  -46.5029  -58.7669 O.2       9 UNK        -0.5270 
     30 CA         25.0300  -48.7938  -58.6097 C.3       8 UNK         0.0284 
     31 CB         25.2893  -49.2870  -60.0448 C.3       8 UNK        -0.1977 
     32 N          25.7957  -49.6133  -57.6630 N.am      8 UNK        -0.4342 
     33 C          25.3179  -50.7239  -57.0778 C.2       8 UNK         0.5039 
     34 O          24.1779  -51.1533  -57.2640 O.2       8 UNK        -0.5547 
     35 CA         26.2496  -51.5152  -56.1355 C.3       7 UNK         0.0281 
     36 CB         26.8146  -52.7506  -56.8555 C.3       7 UNK        -0.1963 
     37 N          27.3627  -50.7290  -55.6059 N.am      7 UNK        -0.4444 
     38 C          27.2391  -49.6950  -54.7633 C.2       7 UNK         0.5104 
     39 O          26.1781  -49.3832  -54.2222 O.2       7 UNK        -0.5100 
     40 CA         28.4933  -48.8384  -54.5032 C.3       6 UNK         0.0396 
     41 CB         28.9984  -49.0444  -53.0678 C.3       6 UNK        -0.1801 
     42 N          29.6092  -49.0517  -55.4352 N.am      6 UNK        -0.4747 
     43 C          29.5722  -48.8875  -56.7683 C.2       6 UNK         0.5012 
     44 O          28.5526  -48.5736  -57.3833 O.2       6 UNK        -0.5003 
     45 CA         30.8641  -49.1787  -57.5622 C.3       5 UNK         0.0782 
     46 C46        31.6265  -47.8781  -57.9185 C.3       11 UNK        -0.0868 
     47 S47        32.3066  -46.9845  -56.4768 S.3       11 UNK        -0.2515 
     48 C48        33.0183  -45.5204  -57.2888 C.3       11 UNK         0.0199 
     49 N          31.7343  -50.1653  -56.9154 N.am      5 UNK        -0.4607 
     50 C          31.3970  -51.4311  -56.6305 C.2       4 UNK         0.5031 
     51 O          30.3130  -51.9295  -56.9367 O.2       4 UNK        -0.5119 
     52 CA         32.4208  -52.2831  -55.8548 C.3       4 UNK         0.0263 
     53 CB         33.0797  -53.3082  -56.7924 C.3       4 UNK        -0.1967 
     54 N          33.4709  -51.5214  -55.1640 N.am      4 UNK        -0.4237 
     55 C          33.2677  -50.6259  -54.1879 C.2       3 UNK         0.4908 
     56 O          32.1498  -50.2894  -53.7873 O.2       3 UNK        -0.5102 
     57 CA         34.5252  -49.9828  -53.5891 C.3       3 UNK         0.0241 
     58 CB         35.1674  -48.9845  -54.5718 C.3       3 UNK        -0.1971 
     59 N          34.1555  -49.2907  -52.3611 N.am      3 UNK        -0.4139 
     60 C          34.9559  -48.9904  -51.3355 C.2       2 UNK         0.5016 
     61 O          36.1567  -49.2683  -51.3018 O.2       2 UNK        -0.5319 
     62 CA         34.3000  -48.2257  -50.1651 C.3       2 UNK         0.0286 
     63 CB         35.2340  -48.0945  -48.9471 C.3       2 UNK        -0.1963 
     64 N          33.8534  -46.8850  -50.5636 N.am      2 UNK        -0.4790 
     65 C          32.7875  -46.6184  -51.3325 C.2       1 UNK         0.5024 
     66 O          32.0379  -47.5082  -51.7408 O.2       1 UNK        -0.4888 
     67 H67        29.9095  -46.1769  -54.6965 H         1 UNK         0.0892 
     68 H68        28.4967  -45.3546  -54.0218 H         1 UNK         0.0892 
     69 H69        29.7866  -44.4239  -54.7752 H         1 UNK         0.0892 
     70 H70        32.0824  -44.9983  -53.7598 H         1 UNK         0.3107 
     71 H71        32.0038  -44.7074  -50.8367 H         1 UNK         0.0773 
     72 H72        34.3634  -44.6795  -52.7928 H         1 UNK         0.0680 
     73 H73        34.5108  -44.4353  -51.0734 H         1 UNK         0.0680 
     74 H74        35.1662  -42.5560  -53.8075 H         1 UNK         0.0650 
     75 H75        34.2741  -41.0564  -53.7840 H         1 UNK         0.0650 
     76 H76        34.4594  -44.3372  -55.2969 H         1 UNK         0.1397 
     77 H77        30.8470  -43.9170  -57.5553 H         1 UNK         0.1363 
     78 H78        31.8092  -41.0546  -54.5124 H         1 UNK         0.1355 
     79 H79        30.0729  -40.6252  -56.5650 H         1 UNK         0.0707 
     80 H80        29.3682  -42.0965  -57.2004 H         1 UNK         0.0707 
     81 H81        26.7019  -40.5808  -54.9201 H         1 UNK         0.1034 
     82 H82        27.2687  -40.8146  -56.5508 H         1 UNK         0.1034 
     83 H83        26.2507  -43.1001  -54.7732 H         1 UNK         0.0482 
     84 H84        22.9972  -41.7200  -55.0399 H         1 UNK         0.3460 
     85 H85        24.2835  -42.2304  -53.9783 H         1 UNK         0.3460 
     86 H86        27.0000  -43.0020  -57.6288 H         1 UNK         0.2989 
     87 H87        26.5229  -44.9514  -58.9386 H         1 UNK         0.0559 
     88 H88        28.9986  -45.8089  -57.3478 H         1 UNK         0.0848 
     89 H89        28.8235  -44.4017  -58.3918 H         1 UNK         0.0848 
     90 H90        28.8347  -46.0053  -59.0946 H         1 UNK         0.0848 
     91 H91        27.2459  -47.5686  -57.9240 H         1 UNK         0.3144 
     92 H92        23.9645  -48.9145  -58.4012 H         1 UNK         0.0727 
     93 H93        24.9742  -50.3229  -60.1709 H         1 UNK         0.0790 
     94 H94        26.3465  -49.2235  -60.3059 H         1 UNK         0.0790 
     95 H95        24.7355  -48.6905  -60.7712 H         1 UNK         0.0790 
     96 H96        26.7469  -49.3238  -57.4576 H         1 UNK         0.3215 
     97 H97        25.6461  -51.8550  -55.2910 H         1 UNK         0.0863 
     98 H98        27.4139  -53.3639  -56.1823 H         1 UNK         0.0808 
     99 H99        27.4436  -52.4710  -57.7019 H         1 UNK         0.0808 
    100 H100       26.0116  -53.3816  -57.2392 H         1 UNK         0.0808 
    101 H101       28.2793  -50.9226  -55.9887 H         1 UNK         0.3118 
    102 H102       28.1764  -47.8001  -54.6094 H         1 UNK         0.0546 
    103 H103       28.2063  -48.8642  -52.3398 H         1 UNK         0.0828 
    104 H104       29.8100  -48.3566  -52.8342 H         1 UNK         0.0828 
    105 H105       29.3655  -50.0594  -52.9113 H         1 UNK         0.0828 
    106 H106       30.4872  -49.3425  -55.0188 H         1 UNK         0.3005 
    107 H107       30.5358  -49.6290  -58.5019 H         1 UNK         0.1257 
    108 H108       30.9742  -47.2026  -58.4746 H         1 UNK         0.0775 
    109 H109       32.4515  -48.1123  -58.5932 H         1 UNK         0.0775 
    110 H110       34.0988  -45.6471  -57.3717 H         1 UNK         0.0840 
    111 H111       32.6452  -45.4290  -58.3100 H         1 UNK         0.0840 
    112 H112       32.6351  -49.8276  -56.6112 H         1 UNK         0.2987 
    113 H113       31.8608  -52.8287  -55.0925 H         1 UNK         0.0785 
    114 H114       32.3278  -53.9158  -57.2985 H         1 UNK         0.0798 
    115 H115       33.7268  -53.9922  -56.2429 H         1 UNK         0.0798 
    116 H116       33.6788  -52.8228  -57.5639 H         1 UNK         0.0798 
    117 H117       34.4216  -51.7252  -55.4385 H         1 UNK         0.3079 
    118 H118       35.2350  -50.7782  -53.3522 H         1 UNK         0.0794 
    119 H119       34.4959  -48.1549  -54.7944 H         1 UNK         0.0786 
    120 H120       35.4266  -49.4616  -55.5174 H         1 UNK         0.0786 
    121 H121       36.0866  -48.5642  -54.1633 H         1 UNK         0.0786 
    122 H122       33.1763  -49.0137  -52.3120 H         1 UNK         0.3032 
    123 H123       33.4285  -48.8058  -49.8518 H         1 UNK         0.1094 
    124 H124       36.1239  -47.5082  -49.1797 H         1 UNK         0.0794 
    125 H125       34.7273  -47.6178  -48.1077 H         1 UNK         0.0794 
    126 H126       35.5694  -49.0747  -48.6053 H         1 UNK         0.0794 
    127 H127       34.4401  -46.1173  -50.2701 H         1 UNK         0.3016 
@<TRIPOS>BOND
     1    1    2 1    
     2    1   67 1    
     3    1   68 1    
     4    1   69 1    
     5    2    3 2    
     6    2    4 am   BACKBONE|DICT|INTERRES
     7    4    5 1    
     8    4   70 1    
     9    5    6 1    
    10    5   65 1    
    11    5   71 1    
    12    6    7 1    
    13    6   72 1    
    14    6   73 1    
    15    7    8 1    
    16    8    9 1    
    17    8   74 1    
    18    8   75 1    
    19    9   10 ar   
    20    9   14 ar   
    21   10   11 ar   
    22   10   76 1    
    23   11   12 ar   
    24   11   48 1    
    25   12   13 ar   
    26   12   77 1    
    27   13   14 ar   
    28   13   15 1    
    29   14   78 1    
    30   15   16 1    
    31   15   79 1    
    32   15   80 1    
    33   16   17 1    
    34   17   18 1    
    35   17   81 1    
    36   17   82 1    
    37   18   19 1    
    38   18   22 1    
    39   18   83 1    
    40   19   20 am   BACKBONE|DICT|INTERRES
    41   19   21 2    
    42   20   84 1    
    43   20   85 1    
    44   22   23 am   BACKBONE|DICT|INTERRES
    45   22   86 1    
    46   23   24 2    
    47   23   25 1    
    48   25   26 1    
    49   25   27 1    
    50   25   87 1    
    51   26   88 1    
    52   26   89 1    
    53   26   90 1    
    54   27   28 am   BACKBONE|DICT|INTERRES
    55   27   91 1    
    56   28   29 2    
    57   28   30 1    
    58   30   31 1    
    59   30   32 1    
    60   30   92 1    
    61   31   93 1    
    62   31   94 1    
    63   31   95 1    
    64   32   33 am   BACKBONE|DICT|INTERRES
    65   32   96 1    
    66   33   34 2    
    67   33   35 1    
    68   35   36 1    
    69   35   37 1    
    70   35   97 1    
    71   36   98 1    
    72   36   99 1    
    73   36  100 1    
    74   37   38 am   BACKBONE|DICT|INTERRES
    75   37  101 1    
    76   38   39 2    
    77   38   40 1    
    78   40   41 1    
    79   40   42 1    
    80   40  102 1    
    81   41  103 1    
    82   41  104 1    
    83   41  105 1    
    84   42   43 am   BACKBONE|DICT|INTERRES
    85   42  106 1    
    86   43   44 2    
    87   43   45 1    
    88   45   46 1    
    89   45   49 1    
    90   45  107 1    
    91   46   47 1    
    92   46  108 1    
    93   46  109 1    
    94   47   48 1    
    95   48  110 1    
    96   48  111 1    
    97   49   50 am   BACKBONE|DICT|INTERRES
    98   49  112 1    
    99   50   51 2    
   100   50   52 1    
   101   52   53 1    
   102   52   54 1    
   103   52  113 1    
   104   53  114 1    
   105   53  115 1    
   106   53  116 1    
   107   54   55 am   BACKBONE|DICT|INTERRES
   108   54  117 1    
   109   55   56 2    
   110   55   57 1    
   111   57   58 1    
   112   57   59 1    
   113   57  118 1    
   114   58  119 1    
   115   58  120 1    
   116   58  121 1    
   117   59   60 am   BACKBONE|DICT|INTERRES
   118   59  122 1    
   119   60   61 2    
   120   60   62 1    
   121   62   63 1    
   122   62   64 1    
   123   62  123 1    
   124   63  124 1    
   125   63  125 1    
   126   63  126 1    
   127   64   65 am   BACKBONE|DICT|INTERRES
   128   64  127 1    
   129   65   66 2    
@<TRIPOS>SUBSTRUCTURE
     1 UNK         1 GROUP             0       ****    0 ROOT    
