@<TRIPOS>MOLECULE
3R134
127   129    1
SMALL
USER_CHARGES


@<TRIPOS>ATOM
      1 CA         33.9041  -43.0311  -59.0162 C.3       0 UNK        -0.1968 
      2 C          34.2403  -43.6303  -57.6583 C.2       0 UNK         0.4852 
      3 O          35.4123  -43.8992  -57.3897 O.2       0 UNK        -0.5359 
      4 N          33.2215  -43.8319  -56.8108 N.am      1 UNK        -0.4300 
      5 CA         33.2927  -44.4054  -55.4604 C.3       1 UNK         0.0863 
      6 C6         34.0466  -43.4988  -54.4454 C.3       11 UNK        -0.0953 
      7 S7         33.2688  -41.8548  -54.2997 S.3       11 UNK        -0.2369 
      8 C8         32.7011  -41.8472  -52.5699 C.3       11 UNK         0.0226 
      9 C9         31.6039  -42.8689  -52.2983 C.ar      11 UNK        -0.0699 
     10 C10        31.8257  -43.9188  -51.4015 C.ar      11 UNK        -0.0804 
     11 C11        30.8022  -44.8215  -51.0952 C.ar      11 UNK        -0.0871 
     12 C12        29.5517  -44.6727  -51.7009 C.ar      11 UNK        -0.1008 
     13 C13        29.3286  -43.6509  -52.6277 C.ar      11 UNK        -0.0735 
     14 C14        30.3540  -42.7433  -52.9122 C.ar      11 UNK        -0.0945 
     15 C15        27.9794  -43.5308  -53.3220 C.3       11 UNK         0.0169 
     16 S16        27.6372  -44.9559  -54.4052 S.3       11 UNK        -0.2669 
     17 C17        28.9527  -44.8009  -55.6632 C.3       11 UNK        -0.0850 
     18 CA         28.4750  -44.1146  -56.9699 C.3       10 UNK         0.0855 
     19 C          29.6800  -43.9176  -57.9361 C.2       10 UNK         0.5543 
     20 N          29.7214  -44.5525  -59.1007 N.am      10 UNK        -0.7343 
     21 O          30.6045  -43.1781  -57.6110 O.2       10 UNK        -0.5027 
     22 N          27.3181  -44.8188  -57.5407 N.am      10 UNK        -0.4495 
     23 C          26.5402  -44.4194  -58.5518 C.2       10 UNK         0.4903 
     24 O          26.6634  -43.3347  -59.1220 O.2       10 UNK        -0.4860 
     25 CA         25.4642  -45.4283  -59.0161 C.3       9 UNK         0.0227 
     26 CB         24.7387  -44.9731  -60.2964 C.3       9 UNK        -0.1964 
     27 N          26.0168  -46.7741  -59.2314 N.am      9 UNK        -0.4231 
     28 C          26.3575  -47.6315  -58.2604 C.2       9 UNK         0.5014 
     29 O          26.1938  -47.3920  -57.0601 O.2       9 UNK        -0.5270 
     30 CA         27.0697  -48.9205  -58.6952 C.3       8 UNK         0.0284 
     31 CB         28.5183  -48.6144  -59.1144 C.3       8 UNK        -0.1977 
     32 N          27.0995  -49.8361  -57.5599 N.am      8 UNK        -0.4342 
     33 C          26.2340  -50.8354  -57.3537 C.2       8 UNK         0.5039 
     34 O          25.4535  -51.2654  -58.2041 O.2       8 UNK        -0.5547 
     35 CA         26.2032  -51.4116  -55.9316 C.3       7 UNK         0.0281 
     36 CB         27.3763  -52.3781  -55.7012 C.3       7 UNK        -0.1963 
     37 N          26.2562  -50.3200  -54.9572 N.am      7 UNK        -0.4444 
     38 C          25.1889  -49.6493  -54.5031 C.2       7 UNK         0.5104 
     39 O          24.0284  -49.9807  -54.7519 O.2       7 UNK        -0.5100 
     40 CA         25.4357  -48.3802  -53.6564 C.3       6 UNK         0.0396 
     41 CB         24.5927  -48.3758  -52.3643 C.3       6 UNK        -0.1801 
     42 N          26.8469  -48.0842  -53.3689 N.am      6 UNK        -0.4747 
     43 C          27.7018  -48.7981  -52.6220 C.2       6 UNK         0.5012 
     44 O          27.4019  -49.8371  -52.0315 O.2       6 UNK        -0.5003 
     45 CA         29.1598  -48.2961  -52.5725 C.3       5 UNK         0.0782 
     46 C46        29.6342  -48.1951  -51.0997 C.3       11 UNK        -0.0868 
     47 S47        31.3285  -47.5400  -50.9210 S.3       11 UNK        -0.2515 
     48 C48        31.0459  -45.9416  -50.0946 C.3       11 UNK         0.0199 
     49 N          30.0490  -49.1492  -53.3710 N.am      5 UNK        -0.4607 
     50 C          29.8983  -49.5007  -54.6575 C.2       4 UNK         0.5031 
     51 O          28.9426  -49.1579  -55.3575 O.2       4 UNK        -0.5119 
     52 CA         30.9881  -50.3966  -55.2690 C.3       4 UNK         0.0263 
     53 CB         31.2228  -50.0952  -56.7612 C.3       4 UNK        -0.1967 
     54 N          32.2521  -50.2867  -54.5399 N.am      4 UNK        -0.4237 
     55 C          33.1066  -51.2886  -54.3052 C.2       3 UNK         0.4908 
     56 O          32.9104  -52.4491  -54.6709 O.2       3 UNK        -0.5102 
     57 CA         34.4036  -50.9258  -53.5492 C.3       3 UNK         0.0241 
     58 CB         35.3812  -52.1122  -53.4424 C.3       3 UNK        -0.1971 
     59 N          35.1053  -49.7871  -54.1534 N.am      3 UNK        -0.4139 
     60 C          34.7480  -48.5027  -54.0256 C.2       2 UNK         0.5016 
     61 O          33.7794  -48.1455  -53.3513 O.2       2 UNK        -0.5319 
     62 CA         35.6080  -47.4562  -54.7638 C.3       2 UNK         0.0286 
     63 CB         36.0848  -47.9375  -56.1536 C.3       2 UNK        -0.1963 
     64 N          34.9429  -46.1496  -54.8719 N.am      2 UNK        -0.4790 
     65 C          33.8038  -45.8626  -55.5242 C.2       1 UNK         0.5024 
     66 O          33.1525  -46.6875  -56.1695 O.2       1 UNK        -0.4888 
     67 H67        34.4890  -42.1269  -59.1821 H         1 UNK         0.0892 
     68 H68        34.1403  -43.7410  -59.8083 H         1 UNK         0.0892 
     69 H69        32.8496  -42.7690  -59.0977 H         1 UNK         0.0892 
     70 H70        32.2811  -43.5819  -57.1141 H         1 UNK         0.3107 
     71 H71        32.2608  -44.4817  -55.1148 H         1 UNK         0.0773 
     72 H72        35.0857  -43.3518  -54.7439 H         1 UNK         0.0680 
     73 H73        34.0707  -43.9649  -53.4590 H         1 UNK         0.0680 
     74 H74        32.3206  -40.8526  -52.3337 H         1 UNK         0.0650 
     75 H75        33.5584  -42.0080  -51.9143 H         1 UNK         0.0650 
     76 H76        32.7916  -44.0232  -50.9264 H         1 UNK         0.1397 
     77 H77        28.7520  -45.3605  -51.4660 H         1 UNK         0.1363 
     78 H78        30.1846  -41.9382  -53.6143 H         1 UNK         0.1355 
     79 H79        27.9209  -42.6139  -53.9108 H         1 UNK         0.0707 
     80 H80        27.1941  -43.4634  -52.5679 H         1 UNK         0.0707 
     81 H81        29.7988  -44.2622  -55.2358 H         1 UNK         0.1034 
     82 H82        29.3239  -45.8048  -55.8806 H         1 UNK         0.1034 
     83 H83        28.1327  -43.1107  -56.7127 H         1 UNK         0.0482 
     84 H84        28.9603  -45.1478  -59.3808 H         1 UNK         0.3460 
     85 H85        30.5056  -44.4110  -59.7162 H         1 UNK         0.3460 
     86 H86        27.0974  -45.7184  -57.1222 H         1 UNK         0.2989 
     87 H87        24.7196  -45.4847  -58.2191 H         1 UNK         0.0559 
     88 H88        25.4254  -44.8773  -61.1384 H         1 UNK         0.0848 
     89 H89        23.9541  -45.6748  -60.5799 H         1 UNK         0.0848 
     90 H90        24.2625  -44.0022  -60.1524 H         1 UNK         0.0848 
     91 H91        26.2123  -47.0291  -60.1893 H         1 UNK         0.3144 
     92 H92        26.5314  -49.3615  -59.5368 H         1 UNK         0.0727 
     93 H93        29.0471  -49.5251  -59.3956 H         1 UNK         0.0790 
     94 H94        29.0799  -48.1369  -58.3093 H         1 UNK         0.0790 
     95 H95        28.5506  -47.9470  -59.9762 H         1 UNK         0.0790 
     96 H96        27.6623  -49.5225  -56.7730 H         1 UNK         0.3215 
     97 H97        25.2726  -51.9694  -55.8052 H         1 UNK         0.0863 
     98 H98        27.3789  -52.7634  -54.6814 H         1 UNK         0.0808 
     99 H99        28.3391  -51.9023  -55.8838 H         1 UNK         0.0808 
    100 H100       27.3072  -53.2351  -56.3724 H         1 UNK         0.0808 
    101 H101       27.1708  -49.9358  -54.7489 H         1 UNK         0.3118 
    102 H102       25.0900  -47.5488  -54.2727 H         1 UNK         0.0546 
    103 H103       23.5280  -48.4365  -52.5923 H         1 UNK         0.0828 
    104 H104       24.7471  -47.4610  -51.7924 H         1 UNK         0.0828 
    105 H105       24.8317  -49.2214  -51.7190 H         1 UNK         0.0828 
    106 H106       27.2059  -47.2716  -53.8568 H         1 UNK         0.3005 
    107 H107       29.2001  -47.2982  -53.0135 H         1 UNK         0.1257 
    108 H108       29.6187  -49.1798  -50.6278 H         1 UNK         0.0775 
    109 H109       28.9440  -47.5814  -50.5186 H         1 UNK         0.0775 
    110 H110       30.2130  -46.0121  -49.3937 H         1 UNK         0.0840 
    111 H111       31.9228  -45.7136  -49.4867 H         1 UNK         0.0840 
    112 H112       30.8564  -49.4978  -52.8759 H         1 UNK         0.2987 
    113 H113       30.6151  -51.4187  -55.1815 H         1 UNK         0.0785 
    114 H114       30.3150  -50.2599  -57.3419 H         1 UNK         0.0798 
    115 H115       31.5319  -49.0605  -56.9163 H         1 UNK         0.0798 
    116 H116       31.9927  -50.7421  -57.1816 H         1 UNK         0.0798 
    117 H117       32.5137  -49.3592  -54.2105 H         1 UNK         0.3079 
    118 H118       34.1092  -50.6519  -52.5336 H         1 UNK         0.0794 
    119 H119       34.9136  -52.9618  -52.9429 H         1 UNK         0.0786 
    120 H120       36.2653  -51.8472  -52.8623 H         1 UNK         0.0786 
    121 H121       35.7126  -52.4524  -54.4244 H         1 UNK         0.0786 
    122 H122       35.8923  -50.0104  -54.7453 H         1 UNK         0.3032 
    123 H123       36.4907  -47.2966  -54.1424 H         1 UNK         0.1094 
    124 H124       36.6021  -47.1412  -56.6895 H         1 UNK         0.0794 
    125 H125       36.7862  -48.7683  -56.0723 H         1 UNK         0.0794 
    126 H126       35.2532  -48.2685  -56.7771 H         1 UNK         0.0794 
    127 H127       35.3886  -45.3985  -54.3647 H         1 UNK         0.3016 
@<TRIPOS>BOND
     1    1    2 1    
     2    1   67 1    
     3    1   68 1    
     4    1   69 1    
     5    2    3 2    
     6    2    4 am   BACKBONE|DICT|INTERRES
     7    4    5 1    
     8    4   70 1    
     9    5    6 1    
    10    5   65 1    
    11    5   71 1    
    12    6    7 1    
    13    6   72 1    
    14    6   73 1    
    15    7    8 1    
    16    8    9 1    
    17    8   74 1    
    18    8   75 1    
    19    9   10 ar   
    20    9   14 ar   
    21   10   11 ar   
    22   10   76 1    
    23   11   12 ar   
    24   11   48 1    
    25   12   13 ar   
    26   12   77 1    
    27   13   14 ar   
    28   13   15 1    
    29   14   78 1    
    30   15   16 1    
    31   15   79 1    
    32   15   80 1    
    33   16   17 1    
    34   17   18 1    
    35   17   81 1    
    36   17   82 1    
    37   18   19 1    
    38   18   22 1    
    39   18   83 1    
    40   19   20 am   BACKBONE|DICT|INTERRES
    41   19   21 2    
    42   20   84 1    
    43   20   85 1    
    44   22   23 am   BACKBONE|DICT|INTERRES
    45   22   86 1    
    46   23   24 2    
    47   23   25 1    
    48   25   26 1    
    49   25   27 1    
    50   25   87 1    
    51   26   88 1    
    52   26   89 1    
    53   26   90 1    
    54   27   28 am   BACKBONE|DICT|INTERRES
    55   27   91 1    
    56   28   29 2    
    57   28   30 1    
    58   30   31 1    
    59   30   32 1    
    60   30   92 1    
    61   31   93 1    
    62   31   94 1    
    63   31   95 1    
    64   32   33 am   BACKBONE|DICT|INTERRES
    65   32   96 1    
    66   33   34 2    
    67   33   35 1    
    68   35   36 1    
    69   35   37 1    
    70   35   97 1    
    71   36   98 1    
    72   36   99 1    
    73   36  100 1    
    74   37   38 am   BACKBONE|DICT|INTERRES
    75   37  101 1    
    76   38   39 2    
    77   38   40 1    
    78   40   41 1    
    79   40   42 1    
    80   40  102 1    
    81   41  103 1    
    82   41  104 1    
    83   41  105 1    
    84   42   43 am   BACKBONE|DICT|INTERRES
    85   42  106 1    
    86   43   44 2    
    87   43   45 1    
    88   45   46 1    
    89   45   49 1    
    90   45  107 1    
    91   46   47 1    
    92   46  108 1    
    93   46  109 1    
    94   47   48 1    
    95   48  110 1    
    96   48  111 1    
    97   49   50 am   BACKBONE|DICT|INTERRES
    98   49  112 1    
    99   50   51 2    
   100   50   52 1    
   101   52   53 1    
   102   52   54 1    
   103   52  113 1    
   104   53  114 1    
   105   53  115 1    
   106   53  116 1    
   107   54   55 am   BACKBONE|DICT|INTERRES
   108   54  117 1    
   109   55   56 2    
   110   55   57 1    
   111   57   58 1    
   112   57   59 1    
   113   57  118 1    
   114   58  119 1    
   115   58  120 1    
   116   58  121 1    
   117   59   60 am   BACKBONE|DICT|INTERRES
   118   59  122 1    
   119   60   61 2    
   120   60   62 1    
   121   62   63 1    
   122   62   64 1    
   123   62  123 1    
   124   63  124 1    
   125   63  125 1    
   126   63  126 1    
   127   64   65 am   BACKBONE|DICT|INTERRES
   128   64  127 1    
   129   65   66 2    
@<TRIPOS>SUBSTRUCTURE
     1 UNK         1 GROUP             0       ****    0 ROOT    
