@<TRIPOS>MOLECULE
3R134
127   129    1
SMALL
USER_CHARGES


@<TRIPOS>ATOM
      1 CA         34.1523  -45.3796  -57.0907 C.3       0 UNK        -0.1968 
      2 C          33.9576  -45.4275  -55.5829 C.2       0 UNK         0.4852 
      3 O          33.0083  -46.0505  -55.1064 O.2       0 UNK        -0.5359 
      4 N          34.8592  -44.7906  -54.8241 N.am      1 UNK        -0.4300 
      5 CA         34.7966  -44.6261  -53.3643 C.3       1 UNK         0.0863 
      6 C6         35.6222  -43.4020  -52.8766 C.3       11 UNK        -0.0953 
      7 S7         35.3556  -41.8790  -53.8508 S.3       11 UNK        -0.2369 
      8 C8         33.9253  -41.1231  -53.0161 C.3       11 UNK         0.0226 
      9 C9         32.6368  -41.8941  -53.2692 C.ar      11 UNK        -0.0699 
     10 C10        31.9708  -42.5210  -52.2116 C.ar      11 UNK        -0.0804 
     11 C11        30.7838  -43.2277  -52.4293 C.ar      11 UNK        -0.0871 
     12 C12        30.2546  -43.2770  -53.7254 C.ar      11 UNK        -0.1008 
     13 C13        30.9208  -42.6768  -54.7969 C.ar      11 UNK        -0.0735 
     14 C14        32.1082  -41.9789  -54.5613 C.ar      11 UNK        -0.0945 
     15 C15        30.3474  -42.7813  -56.2031 C.3       11 UNK         0.0169 
     16 S16        30.2151  -44.5156  -56.7434 S.3       11 UNK        -0.2669 
     17 C17        29.4952  -44.3110  -58.4048 C.3       11 UNK        -0.0850 
     18 CA         27.9535  -44.1302  -58.3947 C.3       10 UNK         0.0855 
     19 C          27.4236  -43.9033  -59.8429 C.2       10 UNK         0.5543 
     20 N          26.5909  -44.7733  -60.4039 N.am      10 UNK        -0.7343 
     21 O          27.7779  -42.9089  -60.4711 O.2       10 UNK        -0.5027 
     22 N          27.2761  -45.2038  -57.6511 N.am      10 UNK        -0.4495 
     23 C          26.0060  -45.1604  -57.2260 C.2       10 UNK         0.4903 
     24 O          25.2945  -44.1572  -57.2997 O.2       10 UNK        -0.4860 
     25 CA         25.4340  -46.4689  -56.6425 C.3       9 UNK         0.0227 
     26 CB         23.8936  -46.5338  -56.7097 C.3       9 UNK        -0.1964 
     27 N          26.0341  -47.6696  -57.2398 N.am      9 UNK        -0.4231 
     28 C          26.0317  -48.0182  -58.5366 C.2       9 UNK         0.5014 
     29 O          25.4514  -47.3802  -59.4162 O.2       9 UNK        -0.5270 
     30 CA         26.8561  -49.2493  -58.9415 C.3       8 UNK         0.0284 
     31 CB         28.1462  -48.8085  -59.6564 C.3       8 UNK        -0.1977 
     32 N          27.2104  -50.0905  -57.7931 N.am      8 UNK        -0.4342 
     33 C          26.6676  -51.2883  -57.5407 C.2       8 UNK         0.5039 
     34 O          25.7892  -51.8042  -58.2337 O.2       8 UNK        -0.5547 
     35 CA         27.2008  -52.0615  -56.3250 C.3       7 UNK         0.0281 
     36 CB         28.4895  -52.8185  -56.6869 C.3       7 UNK        -0.1963 
     37 N          27.4356  -51.2334  -55.1401 N.am      7 UNK        -0.4444 
     38 C          26.4630  -50.7321  -54.3653 C.2       7 UNK         0.5104 
     39 O          25.2652  -50.7913  -54.6426 O.2       7 UNK        -0.5100 
     40 CA         26.8964  -50.0831  -53.0422 C.3       6 UNK         0.0396 
     41 CB         27.3146  -51.1568  -52.0239 C.3       6 UNK        -0.1801 
     42 N          28.0027  -49.1500  -53.2439 N.am      6 UNK        -0.4747 
     43 C          27.8577  -47.8282  -53.4177 C.2       6 UNK         0.5012 
     44 O          26.7708  -47.2523  -53.3699 O.2       6 UNK        -0.5003 
     45 CA         29.1362  -47.0158  -53.7322 C.3       5 UNK         0.0782 
     46 C46        29.7984  -46.4725  -52.4389 C.3       11 UNK        -0.0868 
     47 S47        28.8299  -45.1489  -51.6319 S.3       11 UNK        -0.2515 
     48 C48        30.1119  -43.9078  -51.2343 C.3       11 UNK         0.0199 
     49 N          30.0944  -47.7872  -54.5320 N.am      5 UNK        -0.4607 
     50 C          29.8469  -48.2893  -55.7513 C.2       4 UNK         0.5031 
     51 O          28.7989  -48.0953  -56.3678 O.2       4 UNK        -0.5119 
     52 CA         30.8898  -49.2418  -56.3647 C.3       4 UNK         0.0263 
     53 CB         31.7615  -48.5125  -57.3965 C.3       4 UNK        -0.1967 
     54 N          31.7379  -49.9174  -55.3765 N.am      4 UNK        -0.4237 
     55 C          31.2887  -50.7518  -54.4263 C.2       3 UNK         0.4908 
     56 O          30.1052  -51.0707  -54.3068 O.2       3 UNK        -0.5102 
     57 CA         32.3094  -51.2876  -53.4066 C.3       3 UNK         0.0241 
     58 CB         32.8342  -52.6614  -53.8526 C.3       3 UNK        -0.1971 
     59 N          33.4439  -50.3937  -53.1393 N.am      3 UNK        -0.4139 
     60 C          33.3542  -49.1333  -52.6889 C.2       2 UNK         0.5016 
     61 O          32.2813  -48.5574  -52.4978 O.2       2 UNK        -0.5319 
     62 CA         34.6650  -48.3729  -52.4313 C.3       2 UNK         0.0286 
     63 CB         35.9244  -49.0446  -53.0234 C.3       2 UNK        -0.1963 
     64 N          34.5105  -47.0289  -52.9747 N.am      2 UNK        -0.4790 
     65 C          35.1626  -45.9250  -52.6042 C.2       1 UNK         0.5024 
     66 O          36.0232  -45.9137  -51.7217 O.2       1 UNK        -0.4888 
     67 H67        33.2217  -45.0875  -57.5768 H         1 UNK         0.0892 
     68 H68        34.4399  -46.3616  -57.4645 H         1 UNK         0.0892 
     69 H69        34.9223  -44.6642  -57.3787 H         1 UNK         0.0892 
     70 H70        35.6303  -44.3155  -55.2705 H         1 UNK         0.3107 
     71 H71        33.7534  -44.4329  -53.1126 H         1 UNK         0.0773 
     72 H72        36.6899  -43.6233  -52.9287 H         1 UNK         0.0680 
     73 H73        35.4085  -43.1926  -51.8269 H         1 UNK         0.0680 
     74 H74        34.1331  -41.0377  -51.9484 H         1 UNK         0.0650 
     75 H75        33.8037  -40.1044  -53.3864 H         1 UNK         0.0650 
     76 H76        32.3822  -42.4635  -51.2128 H         1 UNK         0.1397 
     77 H77        29.3303  -43.7990  -53.9231 H         1 UNK         0.1363 
     78 H78        32.6287  -41.5048  -55.3821 H         1 UNK         0.1355 
     79 H79        30.9652  -42.2317  -56.9149 H         1 UNK         0.0707 
     80 H80        29.3600  -42.3184  -56.2188 H         1 UNK         0.0707 
     81 H81        29.7655  -45.1898  -58.9933 H         1 UNK         0.1034 
     82 H82        29.9814  -43.4639  -58.8929 H         1 UNK         0.1034 
     83 H83        27.7422  -43.2020  -57.8609 H         1 UNK         0.0482 
     84 H84        26.2685  -45.5952  -59.9053 H         1 UNK         0.3460 
     85 H85        26.2620  -44.6000  -61.3402 H         1 UNK         0.3460 
     86 H86        27.8027  -46.0562  -57.5182 H         1 UNK         0.2989 
     87 H87        25.7166  -46.4753  -55.5911 H         1 UNK         0.0559 
     88 H88        23.5176  -47.4634  -56.2826 H         1 UNK         0.0848 
     89 H89        23.5291  -46.4630  -57.7350 H         1 UNK         0.0848 
     90 H90        23.4424  -45.7153  -56.1476 H         1 UNK         0.0848 
     91 H91        26.6221  -48.2101  -56.6190 H         1 UNK         0.3144 
     92 H92        26.2554  -49.8133  -59.6580 H         1 UNK         0.0727 
     93 H93        28.7377  -49.6679  -59.9722 H         1 UNK         0.0790 
     94 H94        28.7740  -48.1849  -59.0201 H         1 UNK         0.0790 
     95 H95        27.9166  -48.2281  -60.5511 H         1 UNK         0.0790 
     96 H96        27.9076  -49.7133  -57.1603 H         1 UNK         0.3215 
     97 H97        26.4460  -52.8060  -56.0610 H         1 UNK         0.0863 
     98 H98        28.8299  -53.4397  -55.8581 H         1 UNK         0.0808 
     99 H99        29.3011  -52.1405  -56.9493 H         1 UNK         0.0808 
    100 H100       28.3276  -53.4783  -57.5404 H         1 UNK         0.0808 
    101 H101       28.4011  -51.1585  -54.8210 H         1 UNK         0.3118 
    102 H102       26.0338  -49.5564  -52.6284 H         1 UNK         0.0546 
    103 H103       26.5065  -51.8699  -51.8555 H         1 UNK         0.0828 
    104 H104       27.5585  -50.7115  -51.0594 H         1 UNK         0.0828 
    105 H105       28.1845  -51.7231  -52.3591 H         1 UNK         0.0828 
    106 H106       28.9244  -49.5560  -53.3548 H         1 UNK         0.3005 
    107 H107       28.8329  -46.1675  -54.3495 H         1 UNK         0.1257 
    108 H108       30.7882  -46.0788  -52.6782 H         1 UNK         0.0775 
    109 H109       29.9674  -47.2749  -51.7183 H         1 UNK         0.0775 
    110 H110       29.6553  -43.1353  -50.6143 H         1 UNK         0.0840 
    111 H111       30.8707  -44.3899  -50.6155 H         1 UNK         0.0840 
    112 H112       30.9771  -48.0007  -54.0808 H         1 UNK         0.2987 
    113 H113       30.3333  -50.0153  -56.8958 H         1 UNK         0.0785 
    114 H114       32.3969  -47.7650  -56.9266 H         1 UNK         0.0798 
    115 H115       31.1472  -47.9956  -58.1350 H         1 UNK         0.0798 
    116 H116       32.4030  -49.2076  -57.9380 H         1 UNK         0.0798 
    117 H117       32.7225  -49.6963  -55.3934 H         1 UNK         0.3079 
    118 H118       31.7744  -51.4177  -52.4636 H         1 UNK         0.0794 
    119 H119       33.4140  -52.5934  -54.7741 H         1 UNK         0.0786 
    120 H120       32.0105  -53.3532  -54.0364 H         1 UNK         0.0786 
    121 H121       33.4674  -53.1128  -53.0885 H         1 UNK         0.0786 
    122 H122       34.3653  -50.7822  -53.2798 H         1 UNK         0.3032 
    123 H123       34.7784  -48.3026  -51.3473 H         1 UNK         0.1094 
    124 H124       35.8497  -49.1659  -54.1050 H         1 UNK         0.0794 
    125 H125       36.8171  -48.4520  -52.8225 H         1 UNK         0.0794 
    126 H126       36.0994  -50.0268  -52.5827 H         1 UNK         0.0794 
    127 H127       33.7856  -46.9167  -53.6840 H         1 UNK         0.3016 
@<TRIPOS>BOND
     1    1    2 1    
     2    1   67 1    
     3    1   68 1    
     4    1   69 1    
     5    2    3 2    
     6    2    4 am   BACKBONE|DICT|INTERRES
     7    4    5 1    
     8    4   70 1    
     9    5    6 1    
    10    5   65 1    
    11    5   71 1    
    12    6    7 1    
    13    6   72 1    
    14    6   73 1    
    15    7    8 1    
    16    8    9 1    
    17    8   74 1    
    18    8   75 1    
    19    9   10 ar   
    20    9   14 ar   
    21   10   11 ar   
    22   10   76 1    
    23   11   12 ar   
    24   11   48 1    
    25   12   13 ar   
    26   12   77 1    
    27   13   14 ar   
    28   13   15 1    
    29   14   78 1    
    30   15   16 1    
    31   15   79 1    
    32   15   80 1    
    33   16   17 1    
    34   17   18 1    
    35   17   81 1    
    36   17   82 1    
    37   18   19 1    
    38   18   22 1    
    39   18   83 1    
    40   19   20 am   BACKBONE|DICT|INTERRES
    41   19   21 2    
    42   20   84 1    
    43   20   85 1    
    44   22   23 am   BACKBONE|DICT|INTERRES
    45   22   86 1    
    46   23   24 2    
    47   23   25 1    
    48   25   26 1    
    49   25   27 1    
    50   25   87 1    
    51   26   88 1    
    52   26   89 1    
    53   26   90 1    
    54   27   28 am   BACKBONE|DICT|INTERRES
    55   27   91 1    
    56   28   29 2    
    57   28   30 1    
    58   30   31 1    
    59   30   32 1    
    60   30   92 1    
    61   31   93 1    
    62   31   94 1    
    63   31   95 1    
    64   32   33 am   BACKBONE|DICT|INTERRES
    65   32   96 1    
    66   33   34 2    
    67   33   35 1    
    68   35   36 1    
    69   35   37 1    
    70   35   97 1    
    71   36   98 1    
    72   36   99 1    
    73   36  100 1    
    74   37   38 am   BACKBONE|DICT|INTERRES
    75   37  101 1    
    76   38   39 2    
    77   38   40 1    
    78   40   41 1    
    79   40   42 1    
    80   40  102 1    
    81   41  103 1    
    82   41  104 1    
    83   41  105 1    
    84   42   43 am   BACKBONE|DICT|INTERRES
    85   42  106 1    
    86   43   44 2    
    87   43   45 1    
    88   45   46 1    
    89   45   49 1    
    90   45  107 1    
    91   46   47 1    
    92   46  108 1    
    93   46  109 1    
    94   47   48 1    
    95   48  110 1    
    96   48  111 1    
    97   49   50 am   BACKBONE|DICT|INTERRES
    98   49  112 1    
    99   50   51 2    
   100   50   52 1    
   101   52   53 1    
   102   52   54 1    
   103   52  113 1    
   104   53  114 1    
   105   53  115 1    
   106   53  116 1    
   107   54   55 am   BACKBONE|DICT|INTERRES
   108   54  117 1    
   109   55   56 2    
   110   55   57 1    
   111   57   58 1    
   112   57   59 1    
   113   57  118 1    
   114   58  119 1    
   115   58  120 1    
   116   58  121 1    
   117   59   60 am   BACKBONE|DICT|INTERRES
   118   59  122 1    
   119   60   61 2    
   120   60   62 1    
   121   62   63 1    
   122   62   64 1    
   123   62  123 1    
   124   63  124 1    
   125   63  125 1    
   126   63  126 1    
   127   64   65 am   BACKBONE|DICT|INTERRES
   128   64  127 1    
   129   65   66 2    
@<TRIPOS>SUBSTRUCTURE
     1 UNK         1 GROUP             0       ****    0 ROOT    
