@<TRIPOS>MOLECULE
3R134
127   129    1
SMALL
USER_CHARGES


@<TRIPOS>ATOM
      1 CA         35.6068  -51.8521  -54.8299 C.3       0 UNK        -0.1968 
      2 C          34.8193  -50.5680  -54.6232 C.2       0 UNK         0.4852 
      3 O          34.4010  -50.2866  -53.4963 O.2       0 UNK        -0.5359 
      4 N          34.6079  -49.7930  -55.6983 N.am      1 UNK        -0.4300 
      5 CA         33.8978  -48.5110  -55.6891 C.3       1 UNK         0.0863 
      6 C6         33.5308  -48.0329  -57.1177 C.3       11 UNK        -0.0953 
      7 S7         32.0466  -46.9767  -57.1027 S.3       11 UNK        -0.2369 
      8 C8         32.7739  -45.3075  -57.0971 C.3       11 UNK         0.0226 
      9 C9         31.9463  -44.3756  -56.2288 C.ar      11 UNK        -0.0699 
     10 C10        32.0512  -44.4476  -54.8370 C.ar      11 UNK        -0.0804 
     11 C11        31.2413  -43.6535  -54.0210 C.ar      11 UNK        -0.0871 
     12 C12        30.3521  -42.7497  -54.6095 C.ar      11 UNK        -0.1008 
     13 C13        30.2533  -42.6531  -56.0004 C.ar      11 UNK        -0.0735 
     14 C14        31.0556  -43.4662  -56.8063 C.ar      11 UNK        -0.0945 
     15 C15        29.2660  -41.6816  -56.6304 C.3       11 UNK         0.0169 
     16 S16        27.7571  -42.5227  -57.2044 S.3       11 UNK        -0.2669 
     17 C17        27.0951  -43.1974  -55.6386 C.3       11 UNK        -0.0850 
     18 CA         25.6404  -43.7294  -55.7355 C.3       10 UNK         0.0855 
     19 C          24.5920  -42.5869  -55.8563 C.2       10 UNK         0.5543 
     20 N          24.3331  -41.8741  -54.7680 N.am      10 UNK        -0.7343 
     21 O          24.0279  -42.3245  -56.9175 O.2       10 UNK        -0.5027 
     22 N          25.5247  -44.7472  -56.7846 N.am      10 UNK        -0.4495 
     23 C          24.5263  -45.6242  -56.9246 C.2       10 UNK         0.4903 
     24 O          23.5899  -45.7213  -56.1308 O.2       10 UNK        -0.4860 
     25 CA         24.5853  -46.5931  -58.1226 C.3       9 UNK         0.0227 
     26 CB         23.6702  -46.1217  -59.2701 C.3       9 UNK        -0.1964 
     27 N          25.9461  -46.9058  -58.5904 N.am      9 UNK        -0.4231 
     28 C          26.8245  -46.1161  -59.2301 C.2       9 UNK         0.5014 
     29 O          26.5563  -44.9744  -59.6029 O.2       9 UNK        -0.5270 
     30 CA         28.2523  -46.6552  -59.4463 C.3       8 UNK         0.0284 
     31 CB         29.3042  -45.5773  -59.1336 C.3       8 UNK        -0.1977 
     32 N          28.5239  -47.8223  -58.6049 N.am      8 UNK        -0.4342 
     33 C          28.5684  -49.0917  -59.0322 C.2       8 UNK         0.5039 
     34 O          28.4727  -49.4210  -60.2149 O.2       8 UNK        -0.5547 
     35 CA         28.6995  -50.1905  -57.9585 C.3       7 UNK         0.0281 
     36 CB         30.1674  -50.6217  -57.8106 C.3       7 UNK        -0.1963 
     37 N          28.1658  -49.7962  -56.6485 N.am      7 UNK        -0.4444 
     38 C          26.8799  -49.4821  -56.4168 C.2       7 UNK         0.5104 
     39 O          26.0016  -49.5787  -57.2734 O.2       7 UNK        -0.5100 
     40 CA         26.4970  -48.9093  -55.0371 C.3       6 UNK         0.0396 
     41 CB         25.7758  -49.9755  -54.1984 C.3       6 UNK        -0.1801 
     42 N          27.6207  -48.3736  -54.2660 N.am      6 UNK        -0.4747 
     43 C          28.4395  -47.3804  -54.6461 C.2       6 UNK         0.5012 
     44 O          28.2897  -46.7365  -55.6853 O.2       6 UNK        -0.5003 
     45 CA         29.6754  -47.1270  -53.7539 C.3       5 UNK         0.0782 
     46 C46        29.4328  -45.9391  -52.7918 C.3       11 UNK        -0.0868 
     47 S47        30.9704  -45.4815  -51.9164 S.3       11 UNK        -0.2515 
     48 C48        31.3012  -43.7849  -52.5042 C.3       11 UNK         0.0199 
     49 N          30.1203  -48.3260  -53.0203 N.am      5 UNK        -0.4607 
     50 C          30.4820  -49.4925  -53.5692 C.2       4 UNK         0.5031 
     51 O          30.4751  -49.6976  -54.7821 O.2       4 UNK        -0.5119 
     52 CA         30.9182  -50.6009  -52.5997 C.3       4 UNK         0.0263 
     53 CB         31.2059  -51.9310  -53.3215 C.3       4 UNK        -0.1967 
     54 N          32.1193  -50.1840  -51.8806 N.am      4 UNK        -0.4237 
     55 C          32.1417  -49.6086  -50.6702 C.2       3 UNK         0.4908 
     56 O          31.1318  -49.3668  -50.0092 O.2       3 UNK        -0.5102 
     57 CA         33.5187  -49.1987  -50.1293 C.3       3 UNK         0.0241 
     58 CB         34.3273  -50.4334  -49.6965 C.3       3 UNK        -0.1971 
     59 N          34.2520  -48.4696  -51.1619 N.am      3 UNK        -0.4139 
     60 C          34.3990  -47.1368  -51.2090 C.2       2 UNK         0.5016 
     61 O          34.0873  -46.3700  -50.2983 O.2       2 UNK        -0.5319 
     62 CA         34.9497  -46.5671  -52.5233 C.3       2 UNK         0.0286 
     63 CB         36.4908  -46.6702  -52.5094 C.3       2 UNK        -0.1963 
     64 N          34.3272  -47.3192  -53.6177 N.am      2 UNK        -0.4790 
     65 C          34.7036  -47.4643  -54.8912 C.2       1 UNK         0.5024 
     66 O          35.6445  -46.8723  -55.4212 O.2       1 UNK        -0.4888 
     67 H67        36.5055  -51.8421  -54.2140 H         1 UNK         0.0892 
     68 H68        35.0028  -52.7107  -54.5380 H         1 UNK         0.0892 
     69 H69        35.9073  -51.9851  -55.8689 H         1 UNK         0.0892 
     70 H70        35.0002  -50.0674  -56.5875 H         1 UNK         0.3107 
     71 H71        32.9612  -48.6962  -55.1594 H         1 UNK         0.0773 
     72 H72        34.3603  -47.5330  -57.6215 H         1 UNK         0.0680 
     73 H73        33.2822  -48.8920  -57.7425 H         1 UNK         0.0680 
     74 H74        32.8303  -44.9397  -58.1226 H         1 UNK         0.0650 
     75 H75        33.7970  -45.3305  -56.7221 H         1 UNK         0.0650 
     76 H76        32.7344  -45.1526  -54.3865 H         1 UNK         0.1397 
     77 H77        29.7220  -42.1309  -53.9854 H         1 UNK         0.1363 
     78 H78        30.9671  -43.4060  -57.8822 H         1 UNK         0.1355 
     79 H79        29.7367  -41.1833  -57.4791 H         1 UNK         0.0707 
     80 H80        28.9948  -40.8935  -55.9262 H         1 UNK         0.0707 
     81 H81        27.7499  -44.0135  -55.3289 H         1 UNK         0.1034 
     82 H82        27.1771  -42.4408  -54.8564 H         1 UNK         0.1034 
     83 H83        25.4267  -44.2399  -54.7942 H         1 UNK         0.0482 
     84 H84        24.7833  -42.0761  -53.8891 H         1 UNK         0.3460 
     85 H85        23.6632  -41.1228  -54.8245 H         1 UNK         0.3460 
     86 H86        26.2013  -44.6768  -57.5348 H         1 UNK         0.2989 
     87 H87        24.1847  -47.5421  -57.7633 H         1 UNK         0.0559 
     88 H88        22.6364  -46.0434  -58.9314 H         1 UNK         0.0848 
     89 H89        23.6858  -46.8216  -60.1054 H         1 UNK         0.0848 
     90 H90        23.9572  -45.1396  -59.6466 H         1 UNK         0.0848 
     91 H91        26.2634  -47.8320  -58.3246 H         1 UNK         0.3144 
     92 H92        28.3370  -46.9155  -60.5030 H         1 UNK         0.0727 
     93 H93        29.2613  -45.2772  -58.0857 H         1 UNK         0.0790 
     94 H94        29.1541  -44.6817  -59.7378 H         1 UNK         0.0790 
     95 H95        30.3117  -45.9369  -59.3404 H         1 UNK         0.0790 
     96 H96        28.6040  -47.6372  -57.6094 H         1 UNK         0.3215 
     97 H97        28.1236  -51.0524  -58.3023 H         1 UNK         0.0863 
     98 H98        30.2735  -51.4362  -57.0938 H         1 UNK         0.0808 
     99 H99        30.7964  -49.7970  -57.4739 H         1 UNK         0.0808 
    100 H100       30.5704  -50.9708  -58.7622 H         1 UNK         0.0808 
    101 H101       28.8464  -49.6938  -55.9000 H         1 UNK         0.3118 
    102 H102       25.8026  -48.0851  -55.2135 H         1 UNK         0.0546 
    103 H103       26.4292  -50.8176  -53.9668 H         1 UNK         0.0828 
    104 H104       24.9105  -50.3723  -54.7315 H         1 UNK         0.0828 
    105 H105       25.4106  -49.5627  -53.2579 H         1 UNK         0.0828 
    106 H106       27.8352  -48.8467  -53.4002 H         1 UNK         0.3005 
    107 H107       30.4808  -46.8538  -54.4389 H         1 UNK         0.1257 
    108 H108       28.6763  -46.1953  -52.0479 H         1 UNK         0.0775 
    109 H109       29.0424  -45.0733  -53.3288 H         1 UNK         0.0775 
    110 H110       30.5877  -43.1103  -52.0284 H         1 UNK         0.0840 
    111 H111       32.2894  -43.4787  -52.1586 H         1 UNK         0.0840 
    112 H112       30.1769  -48.2318  -52.0147 H         1 UNK         0.2987 
    113 H113       30.0980  -50.7716  -51.8991 H         1 UNK         0.0785 
    114 H114       30.3214  -52.2868  -53.8516 H         1 UNK         0.0798 
    115 H115       31.4962  -52.7096  -52.6161 H         1 UNK         0.0798 
    116 H116       32.0061  -51.8296  -54.0556 H         1 UNK         0.0798 
    117 H117       32.9961  -50.3165  -52.3835 H         1 UNK         0.3079 
    118 H118       33.3639  -48.5665  -49.2522 H         1 UNK         0.0794 
    119 H119       35.2856  -50.1436  -49.2652 H         1 UNK         0.0786 
    120 H120       34.5283  -51.1047  -50.5327 H         1 UNK         0.0786 
    121 H121       33.7905  -51.0053  -48.9385 H         1 UNK         0.0786 
    122 H122       34.5639  -49.0164  -51.9597 H         1 UNK         0.3032 
    123 H123       34.6506  -45.5201  -52.6007 H         1 UNK         0.1094 
    124 H124       36.8297  -47.7046  -52.5773 H         1 UNK         0.0794 
    125 H125       36.9398  -46.1132  -53.3311 H         1 UNK         0.0794 
    126 H126       36.9027  -46.2511  -51.5900 H         1 UNK         0.0794 
    127 H127       33.5253  -47.8604  -53.3247 H         1 UNK         0.3016 
@<TRIPOS>BOND
     1    1    2 1    
     2    1   67 1    
     3    1   68 1    
     4    1   69 1    
     5    2    3 2    
     6    2    4 am   BACKBONE|DICT|INTERRES
     7    4    5 1    
     8    4   70 1    
     9    5    6 1    
    10    5   65 1    
    11    5   71 1    
    12    6    7 1    
    13    6   72 1    
    14    6   73 1    
    15    7    8 1    
    16    8    9 1    
    17    8   74 1    
    18    8   75 1    
    19    9   10 ar   
    20    9   14 ar   
    21   10   11 ar   
    22   10   76 1    
    23   11   12 ar   
    24   11   48 1    
    25   12   13 ar   
    26   12   77 1    
    27   13   14 ar   
    28   13   15 1    
    29   14   78 1    
    30   15   16 1    
    31   15   79 1    
    32   15   80 1    
    33   16   17 1    
    34   17   18 1    
    35   17   81 1    
    36   17   82 1    
    37   18   19 1    
    38   18   22 1    
    39   18   83 1    
    40   19   20 am   BACKBONE|DICT|INTERRES
    41   19   21 2    
    42   20   84 1    
    43   20   85 1    
    44   22   23 am   BACKBONE|DICT|INTERRES
    45   22   86 1    
    46   23   24 2    
    47   23   25 1    
    48   25   26 1    
    49   25   27 1    
    50   25   87 1    
    51   26   88 1    
    52   26   89 1    
    53   26   90 1    
    54   27   28 am   BACKBONE|DICT|INTERRES
    55   27   91 1    
    56   28   29 2    
    57   28   30 1    
    58   30   31 1    
    59   30   32 1    
    60   30   92 1    
    61   31   93 1    
    62   31   94 1    
    63   31   95 1    
    64   32   33 am   BACKBONE|DICT|INTERRES
    65   32   96 1    
    66   33   34 2    
    67   33   35 1    
    68   35   36 1    
    69   35   37 1    
    70   35   97 1    
    71   36   98 1    
    72   36   99 1    
    73   36  100 1    
    74   37   38 am   BACKBONE|DICT|INTERRES
    75   37  101 1    
    76   38   39 2    
    77   38   40 1    
    78   40   41 1    
    79   40   42 1    
    80   40  102 1    
    81   41  103 1    
    82   41  104 1    
    83   41  105 1    
    84   42   43 am   BACKBONE|DICT|INTERRES
    85   42  106 1    
    86   43   44 2    
    87   43   45 1    
    88   45   46 1    
    89   45   49 1    
    90   45  107 1    
    91   46   47 1    
    92   46  108 1    
    93   46  109 1    
    94   47   48 1    
    95   48  110 1    
    96   48  111 1    
    97   49   50 am   BACKBONE|DICT|INTERRES
    98   49  112 1    
    99   50   51 2    
   100   50   52 1    
   101   52   53 1    
   102   52   54 1    
   103   52  113 1    
   104   53  114 1    
   105   53  115 1    
   106   53  116 1    
   107   54   55 am   BACKBONE|DICT|INTERRES
   108   54  117 1    
   109   55   56 2    
   110   55   57 1    
   111   57   58 1    
   112   57   59 1    
   113   57  118 1    
   114   58  119 1    
   115   58  120 1    
   116   58  121 1    
   117   59   60 am   BACKBONE|DICT|INTERRES
   118   59  122 1    
   119   60   61 2    
   120   60   62 1    
   121   62   63 1    
   122   62   64 1    
   123   62  123 1    
   124   63  124 1    
   125   63  125 1    
   126   63  126 1    
   127   64   65 am   BACKBONE|DICT|INTERRES
   128   64  127 1    
   129   65   66 2    
@<TRIPOS>SUBSTRUCTURE
     1 UNK         1 GROUP             0       ****    0 ROOT    
