@<TRIPOS>MOLECULE
3R134
127   129    1
SMALL
USER_CHARGES


@<TRIPOS>ATOM
      1 CA         37.4864  -43.3860  -51.6052 C.3       0 UNK        -0.1968 
      2 C          37.3075  -44.5811  -52.5301 C.2       0 UNK         0.4852 
      3 O          38.2980  -45.1623  -52.9767 O.2       0 UNK        -0.5359 
      4 N          36.0536  -44.9471  -52.8239 N.am      1 UNK        -0.4300 
      5 CA         35.6923  -46.1068  -53.6431 C.3       1 UNK         0.0863 
      6 C6         34.2446  -46.0033  -54.1897 C.3       11 UNK        -0.0953 
      7 S7         34.1052  -44.7169  -55.4727 S.3       11 UNK        -0.2369 
      8 C8         33.4499  -43.2996  -54.5370 C.3       11 UNK         0.0226 
      9 C9         31.9365  -43.1751  -54.6452 C.ar      11 UNK        -0.0699 
     10 C10        31.1194  -43.3613  -53.5258 C.ar      11 UNK        -0.0804 
     11 C11        29.7387  -43.1448  -53.6089 C.ar      11 UNK        -0.0871 
     12 C12        29.1744  -42.7557  -54.8292 C.ar      11 UNK        -0.1008 
     13 C13        29.9830  -42.5676  -55.9552 C.ar      11 UNK        -0.0735 
     14 C14        31.3597  -42.7871  -55.8572 C.ar      11 UNK        -0.0945 
     15 C15        29.3926  -42.0554  -57.2607 C.3       11 UNK         0.0169 
     16 S16        28.4864  -43.3512  -58.1628 S.3       11 UNK        -0.2669 
     17 C17        26.7473  -42.8033  -58.0081 C.3       11 UNK        -0.0850 
     18 CA         25.8754  -43.7843  -57.1706 C.3       10 UNK         0.0855 
     19 C          24.4384  -43.2478  -56.8867 C.2       10 UNK         0.5543 
     20 N          24.3041  -41.9951  -56.4703 N.am      10 UNK        -0.7343 
     21 O          23.4401  -43.9586  -56.9920 O.2       10 UNK        -0.5027 
     22 N          25.8908  -45.1559  -57.7022 N.am      10 UNK        -0.4495 
     23 C          25.4550  -45.5684  -58.9001 C.2       10 UNK         0.4903 
     24 O          24.9987  -44.8221  -59.7687 O.2       10 UNK        -0.4860 
     25 CA         25.5424  -47.0852  -59.1562 C.3       9 UNK         0.0227 
     26 CB         25.2945  -47.4773  -60.6286 C.3       9 UNK        -0.1964 
     27 N          26.7895  -47.6662  -58.6473 N.am      9 UNK        -0.4231 
     28 C          28.0447  -47.4410  -59.0673 C.2       9 UNK         0.5014 
     29 O          28.3349  -46.7337  -60.0327 O.2       9 UNK        -0.5270 
     30 CA         29.1823  -48.1220  -58.2759 C.3       8 UNK         0.0284 
     31 CB         29.9297  -47.0871  -57.4170 C.3       8 UNK        -0.1977 
     32 N          28.7260  -49.2163  -57.4123 N.am      8 UNK        -0.4342 
     33 C          28.2544  -50.3958  -57.8410 C.2       8 UNK         0.5039 
     34 O          28.2472  -50.7450  -59.0216 O.2       8 UNK        -0.5547 
     35 CA         27.6371  -51.3171  -56.7761 C.3       7 UNK         0.0281 
     36 CB         28.7121  -52.1883  -56.1055 C.3       7 UNK        -0.1963 
     37 N          26.9028  -50.5574  -55.7588 N.am      7 UNK        -0.4444 
     38 C          25.6979  -50.0006  -55.9509 C.2       7 UNK         0.5104 
     39 O          25.0552  -50.1057  -56.9947 O.2       7 UNK        -0.5100 
     40 CA         25.1218  -49.1583  -54.7978 C.3       6 UNK         0.0396 
     41 CB         24.3376  -50.0488  -53.8216 C.3       6 UNK        -0.1801 
     42 N          26.1462  -48.4123  -54.0624 N.am      6 UNK        -0.4747 
     43 C          26.8498  -47.3861  -54.5650 C.2       6 UNK         0.5012 
     44 O          26.6701  -46.9271  -55.6911 O.2       6 UNK        -0.5003 
     45 CA         27.9806  -46.8153  -53.6837 C.3       5 UNK         0.0782 
     46 C46        27.4477  -45.6574  -52.8074 C.3       11 UNK        -0.0868 
     47 S47        28.7341  -44.9439  -51.7272 S.3       11 UNK        -0.2515 
     48 C48        28.8777  -43.2421  -52.3560 C.3       11 UNK         0.0199 
     49 N          28.6539  -47.8578  -52.8948 N.am      5 UNK        -0.4607 
     50 C          29.2938  -48.9093  -53.4189 C.2       4 UNK         0.5031 
     51 O          29.3315  -49.1487  -54.6278 O.2       4 UNK        -0.5119 
     52 CA         29.9329  -49.8952  -52.4283 C.3       4 UNK         0.0263 
     53 CB         28.8961  -50.9371  -51.9765 C.3       4 UNK        -0.1967 
     54 N          31.0735  -50.5885  -53.0302 N.am      4 UNK        -0.4237 
     55 C          32.2229  -49.9901  -53.3647 C.2       3 UNK         0.4908 
     56 O          32.4864  -48.8133  -53.1044 O.2       3 UNK        -0.5102 
     57 CA         33.2210  -50.8410  -54.1650 C.3       3 UNK         0.0241 
     58 CB         32.8592  -50.8180  -55.6605 C.3       3 UNK        -0.1971 
     59 N          34.5773  -50.3235  -54.0005 N.am      3 UNK        -0.4139 
     60 C          35.3705  -50.5684  -52.9494 C.2       2 UNK         0.5016 
     61 O          35.1099  -51.3829  -52.0627 O.2       2 UNK        -0.5319 
     62 CA         36.6713  -49.7502  -52.8716 C.3       2 UNK         0.0286 
     63 CB         37.8170  -50.4829  -53.5886 C.3       2 UNK        -0.1963 
     64 N          36.5142  -48.4084  -53.4446 N.am      2 UNK        -0.4790 
     65 C          35.8814  -47.3999  -52.8281 C.2       1 UNK         0.5024 
     66 O          35.4438  -47.4653  -51.6768 O.2       1 UNK        -0.4888 
     67 H67        36.5314  -42.9578  -51.3014 H         1 UNK         0.0892 
     68 H68        38.0253  -43.6849  -50.7065 H         1 UNK         0.0892 
     69 H69        38.0623  -42.6078  -52.1053 H         1 UNK         0.0892 
     70 H70        35.2826  -44.4647  -52.3877 H         1 UNK         0.3107 
     71 H71        36.3744  -46.1432  -54.4960 H         1 UNK         0.0773 
     72 H72        33.9425  -46.9434  -54.6555 H         1 UNK         0.0680 
     73 H73        33.5247  -45.8217  -53.3891 H         1 UNK         0.0680 
     74 H74        33.9030  -42.3901  -54.9341 H         1 UNK         0.0650 
     75 H75        33.7632  -43.3569  -53.4944 H         1 UNK         0.0650 
     76 H76        31.5592  -43.6399  -52.5778 H         1 UNK         0.1397 
     77 H77        28.1126  -42.5640  -54.8981 H         1 UNK         0.1363 
     78 H78        31.9937  -42.6251  -56.7185 H         1 UNK         0.1355 
     79 H79        30.1863  -41.6872  -57.9126 H         1 UNK         0.0707 
     80 H80        28.7618  -41.1901  -57.0575 H         1 UNK         0.0707 
     81 H81        26.7219  -41.8024  -57.5793 H         1 UNK         0.1034 
     82 H82        26.3364  -42.6920  -59.0125 H         1 UNK         0.1034 
     83 H83        26.3353  -43.8715  -56.1856 H         1 UNK         0.0482 
     84 H84        25.0998  -41.3923  -56.3366 H         1 UNK         0.3460 
     85 H85        23.3788  -41.6484  -56.2699 H         1 UNK         0.3460 
     86 H86        26.2172  -45.8605  -57.0433 H         1 UNK         0.2989 
     87 H87        24.7446  -47.5346  -58.5630 H         1 UNK         0.0559 
     88 H88        24.3000  -47.1672  -60.9515 H         1 UNK         0.0848 
     89 H89        25.3583  -48.5564  -60.7676 H         1 UNK         0.0848 
     90 H90        26.0128  -47.0081  -61.3014 H         1 UNK         0.0848 
     91 H91        26.6866  -48.2404  -57.8219 H         1 UNK         0.3144 
     92 H92        29.8842  -48.5377  -59.0015 H         1 UNK         0.0727 
     93 H93        29.2627  -46.5967  -56.7081 H         1 UNK         0.0790 
     94 H94        30.3645  -46.3043  -58.0402 H         1 UNK         0.0790 
     95 H95        30.7434  -47.5445  -56.8533 H         1 UNK         0.0790 
     96 H96        28.7846  -49.0621  -56.4071 H         1 UNK         0.3215 
     97 H97        26.9335  -51.9821  -57.2823 H         1 UNK         0.0863 
     98 H98        28.2698  -52.8855  -55.3939 H         1 UNK         0.0808 
     99 H99        29.4502  -51.5893  -55.5734 H         1 UNK         0.0808 
    100 H100       29.2493  -52.7807  -56.8474 H         1 UNK         0.0808 
    101 H101       27.3947  -50.3580  -54.8994 H         1 UNK         0.3118 
    102 H102       24.4264  -48.4361  -55.2314 H         1 UNK         0.0546 
    103 H103       24.9806  -50.7829  -53.3345 H         1 UNK         0.0828 
    104 H104       23.5519  -50.5988  -54.3418 H         1 UNK         0.0828 
    105 H105       23.8542  -49.4565  -53.0445 H         1 UNK         0.0828 
    106 H106       26.3568  -48.7226  -53.1248 H         1 UNK         0.3005 
    107 H107       28.7293  -46.3994  -54.3619 H         1 UNK         0.1257 
    108 H108       26.6333  -46.0029  -52.1676 H         1 UNK         0.0775 
    109 H109       27.0253  -44.8715  -53.4369 H         1 UNK         0.0775 
    110 H110       27.8833  -42.8256  -52.5247 H         1 UNK         0.0840 
    111 H111       29.3285  -42.6256  -51.5769 H         1 UNK         0.0840 
    112 H112       28.6662  -47.7163  -51.8948 H         1 UNK         0.2987 
    113 H113       30.2868  -49.3404  -51.5565 H         1 UNK         0.0785 
    114 H114       28.0416  -50.4596  -51.4953 H         1 UNK         0.0798 
    115 H115       29.3230  -51.6321  -51.2530 H         1 UNK         0.0798 
    116 H116       28.5144  -51.5206  -52.8156 H         1 UNK         0.0798 
    117 H117       30.9243  -51.5471  -53.3081 H         1 UNK         0.3079 
    118 H118       33.1829  -51.8715  -53.8046 H         1 UNK         0.0794 
    119 H119       31.8669  -51.2360  -55.8318 H         1 UNK         0.0786 
    120 H120       33.5628  -51.4074  -56.2488 H         1 UNK         0.0786 
    121 H121       32.8544  -49.8025  -56.0597 H         1 UNK         0.0786 
    122 H122       34.8628  -49.6042  -54.6471 H         1 UNK         0.3032 
    123 H123       36.9359  -49.6525  -51.8158 H         1 UNK         0.1094 
    124 H124       37.9676  -51.4771  -53.1652 H         1 UNK         0.0794 
    125 H125       37.6160  -50.6097  -54.6531 H         1 UNK         0.0794 
    126 H126       38.7586  -49.9432  -53.4857 H         1 UNK         0.0794 
    127 H127       36.8790  -48.2636  -54.3759 H         1 UNK         0.3016 
@<TRIPOS>BOND
     1    1    2 1    
     2    1   67 1    
     3    1   68 1    
     4    1   69 1    
     5    2    3 2    
     6    2    4 am   BACKBONE|DICT|INTERRES
     7    4    5 1    
     8    4   70 1    
     9    5    6 1    
    10    5   65 1    
    11    5   71 1    
    12    6    7 1    
    13    6   72 1    
    14    6   73 1    
    15    7    8 1    
    16    8    9 1    
    17    8   74 1    
    18    8   75 1    
    19    9   10 ar   
    20    9   14 ar   
    21   10   11 ar   
    22   10   76 1    
    23   11   12 ar   
    24   11   48 1    
    25   12   13 ar   
    26   12   77 1    
    27   13   14 ar   
    28   13   15 1    
    29   14   78 1    
    30   15   16 1    
    31   15   79 1    
    32   15   80 1    
    33   16   17 1    
    34   17   18 1    
    35   17   81 1    
    36   17   82 1    
    37   18   19 1    
    38   18   22 1    
    39   18   83 1    
    40   19   20 am   BACKBONE|DICT|INTERRES
    41   19   21 2    
    42   20   84 1    
    43   20   85 1    
    44   22   23 am   BACKBONE|DICT|INTERRES
    45   22   86 1    
    46   23   24 2    
    47   23   25 1    
    48   25   26 1    
    49   25   27 1    
    50   25   87 1    
    51   26   88 1    
    52   26   89 1    
    53   26   90 1    
    54   27   28 am   BACKBONE|DICT|INTERRES
    55   27   91 1    
    56   28   29 2    
    57   28   30 1    
    58   30   31 1    
    59   30   32 1    
    60   30   92 1    
    61   31   93 1    
    62   31   94 1    
    63   31   95 1    
    64   32   33 am   BACKBONE|DICT|INTERRES
    65   32   96 1    
    66   33   34 2    
    67   33   35 1    
    68   35   36 1    
    69   35   37 1    
    70   35   97 1    
    71   36   98 1    
    72   36   99 1    
    73   36  100 1    
    74   37   38 am   BACKBONE|DICT|INTERRES
    75   37  101 1    
    76   38   39 2    
    77   38   40 1    
    78   40   41 1    
    79   40   42 1    
    80   40  102 1    
    81   41  103 1    
    82   41  104 1    
    83   41  105 1    
    84   42   43 am   BACKBONE|DICT|INTERRES
    85   42  106 1    
    86   43   44 2    
    87   43   45 1    
    88   45   46 1    
    89   45   49 1    
    90   45  107 1    
    91   46   47 1    
    92   46  108 1    
    93   46  109 1    
    94   47   48 1    
    95   48  110 1    
    96   48  111 1    
    97   49   50 am   BACKBONE|DICT|INTERRES
    98   49  112 1    
    99   50   51 2    
   100   50   52 1    
   101   52   53 1    
   102   52   54 1    
   103   52  113 1    
   104   53  114 1    
   105   53  115 1    
   106   53  116 1    
   107   54   55 am   BACKBONE|DICT|INTERRES
   108   54  117 1    
   109   55   56 2    
   110   55   57 1    
   111   57   58 1    
   112   57   59 1    
   113   57  118 1    
   114   58  119 1    
   115   58  120 1    
   116   58  121 1    
   117   59   60 am   BACKBONE|DICT|INTERRES
   118   59  122 1    
   119   60   61 2    
   120   60   62 1    
   121   62   63 1    
   122   62   64 1    
   123   62  123 1    
   124   63  124 1    
   125   63  125 1    
   126   63  126 1    
   127   64   65 am   BACKBONE|DICT|INTERRES
   128   64  127 1    
   129   65   66 2    
@<TRIPOS>SUBSTRUCTURE
     1 UNK         1 GROUP             0       ****    0 ROOT    
