@<TRIPOS>MOLECULE
3R134
127   129    1
SMALL
USER_CHARGES


@<TRIPOS>ATOM
      1 CA         39.1100  -44.8404  -55.5384 C.3       0 UNK        -0.1968 
      2 C          37.8651  -44.7669  -54.6663 C.2       0 UNK         0.4852 
      3 O          37.8314  -43.9766  -53.7221 O.2       0 UNK        -0.5359 
      4 N          36.8508  -45.5880  -54.9775 N.am      1 UNK        -0.4300 
      5 CA         35.5566  -45.6821  -54.2852 C.3       1 UNK         0.0863 
      6 C6         34.6567  -44.4288  -54.4872 C.3       11 UNK        -0.0953 
      7 S7         33.8864  -44.4038  -56.1411 S.3       11 UNK        -0.2369 
      8 C8         32.5823  -45.6758  -55.9894 C.3       11 UNK         0.0226 
      9 C9         31.4941  -45.2929  -54.9962 C.ar      11 UNK        -0.0699 
     10 C10        31.5956  -45.6695  -53.6532 C.ar      11 UNK        -0.0804 
     11 C11        30.6045  -45.3101  -52.7349 C.ar      11 UNK        -0.0871 
     12 C12        29.4869  -44.5945  -53.1756 C.ar      11 UNK        -0.1008 
     13 C13        29.3606  -44.2410  -54.5223 C.ar      11 UNK        -0.0735 
     14 C14        30.3715  -44.5809  -55.4250 C.ar      11 UNK        -0.0945 
     15 C15        28.1290  -43.4987  -55.0075 C.3       11 UNK         0.0169 
     16 S16        26.8329  -44.6671  -55.5130 S.3       11 UNK        -0.2669 
     17 C17        25.5432  -43.4922  -56.0381 C.3       11 UNK        -0.0850 
     18 CA         24.4697  -44.1189  -56.9654 C.3       10 UNK         0.0855 
     19 C          23.3494  -43.0730  -57.2454 C.2       10 UNK         0.5543 
     20 N          23.2612  -42.4965  -58.4381 N.am      10 UNK        -0.7343 
     21 O          22.5510  -42.7787  -56.3593 O.2       10 UNK        -0.5027 
     22 N          25.0691  -44.7387  -58.1612 N.am      10 UNK        -0.4495 
     23 C          24.4154  -45.4779  -59.0660 C.2       10 UNK         0.4903 
     24 O          23.2153  -45.7446  -58.9984 O.2       10 UNK        -0.4860 
     25 CA         25.2271  -46.0080  -60.2607 C.3       9 UNK         0.0227 
     26 CB         25.5907  -44.8778  -61.2444 C.3       9 UNK        -0.1964 
     27 N          26.3997  -46.8046  -59.8813 N.am      9 UNK        -0.4231 
     28 C          27.5294  -46.4265  -59.2692 C.2       9 UNK         0.5014 
     29 O          27.7728  -45.2643  -58.9373 O.2       9 UNK        -0.5270 
     30 CA         28.5452  -47.5515  -58.9727 C.3       8 UNK         0.0284 
     31 CB         29.8331  -47.0237  -58.3161 C.3       8 UNK        -0.1977 
     32 N          27.9805  -48.6002  -58.1178 N.am      8 UNK        -0.4342 
     33 C          27.0703  -49.5132  -58.4854 C.2       8 UNK         0.5039 
     34 O          26.6442  -49.6233  -59.6367 O.2       8 UNK        -0.5547 
     35 CA         26.4962  -50.4126  -57.3787 C.3       7 UNK         0.0281 
     36 CB         27.4239  -51.6067  -57.1025 C.3       7 UNK        -0.1963 
     37 N          26.2522  -49.6730  -56.1382 N.am      7 UNK        -0.4444 
     38 C          25.3285  -48.7147  -55.9779 C.2       7 UNK         0.5104 
     39 O          24.5104  -48.4119  -56.8460 O.2       7 UNK        -0.5100 
     40 CA         25.3164  -47.9390  -54.6446 C.3       6 UNK         0.0396 
     41 CB         24.3066  -48.5455  -53.6508 C.3       6 UNK        -0.1801 
     42 N          26.6457  -47.7490  -54.0397 N.am      6 UNK        -0.4747 
     43 C          27.4472  -48.6720  -53.4900 C.2       6 UNK         0.5012 
     44 O          27.1283  -49.8537  -53.3392 O.2       6 UNK        -0.5003 
     45 CA         28.8674  -48.2202  -53.1020 C.3       5 UNK         0.0782 
     46 C46        28.9572  -47.8925  -51.5898 C.3       11 UNK        -0.0868 
     47 S47        30.6569  -47.5103  -51.0377 S.3       11 UNK        -0.2515 
     48 C48        30.7387  -45.7060  -51.2711 C.3       11 UNK         0.0199 
     49 N          29.8535  -49.2202  -53.5169 N.am      5 UNK        -0.4607 
     50 C          30.1181  -49.5508  -54.7862 C.2       4 UNK         0.5031 
     51 O          29.5484  -49.0365  -55.7503 O.2       4 UNK        -0.5119 
     52 CA         31.1599  -50.6631  -55.0117 C.3       4 UNK         0.0263 
     53 CB         31.8441  -50.5612  -56.3927 C.3       4 UNK        -0.1967 
     54 N          32.1426  -50.7834  -53.9216 N.am      4 UNK        -0.4237 
     55 C          33.1072  -49.9098  -53.5943 C.2       3 UNK         0.4908 
     56 O          33.3252  -48.8551  -54.1979 O.2       3 UNK        -0.5102 
     57 CA         33.9854  -50.2864  -52.3886 C.3       3 UNK         0.0241 
     58 CB         34.6253  -51.6819  -52.5401 C.3       3 UNK        -0.1971 
     59 N          35.0320  -49.2798  -52.2607 N.am      3 UNK        -0.4139 
     60 C          35.6984  -48.9324  -51.1543 C.2       2 UNK         0.5016 
     61 O          35.5322  -49.4685  -50.0579 O.2       2 UNK        -0.5319 
     62 CA         36.7390  -47.8008  -51.2949 C.3       2 UNK         0.0286 
     63 CB         38.1663  -48.3622  -51.1828 C.3       2 UNK        -0.1963 
     64 N          36.6161  -47.0701  -52.5625 N.am      2 UNK        -0.4790 
     65 C          35.6826  -46.1401  -52.8133 C.2       1 UNK         0.5024 
     66 O          34.9172  -45.7073  -51.9504 O.2       1 UNK        -0.4888 
     67 H67        39.3047  -43.8705  -55.9955 H         1 UNK         0.0892 
     68 H68        39.9754  -45.1125  -54.9347 H         1 UNK         0.0892 
     69 H69        39.0084  -45.5759  -56.3361 H         1 UNK         0.0892 
     70 H70        36.9525  -46.2022  -55.7739 H         1 UNK         0.3107 
     71 H71        35.0538  -46.5275  -54.7542 H         1 UNK         0.0773 
     72 H72        35.2372  -43.5140  -54.3641 H         1 UNK         0.0680 
     73 H73        33.8629  -44.3517  -53.7472 H         1 UNK         0.0680 
     74 H74        33.0179  -46.6366  -55.7167 H         1 UNK         0.0650 
     75 H75        32.1399  -45.8261  -56.9746 H         1 UNK         0.0650 
     76 H76        32.4503  -46.2418  -53.3179 H         1 UNK         0.1397 
     77 H77        28.7070  -44.3247  -52.4764 H         1 UNK         0.1363 
     78 H78        30.2768  -44.3024  -56.4659 H         1 UNK         0.1355 
     79 H79        27.7468  -42.8464  -54.2207 H         1 UNK         0.0707 
     80 H80        28.3883  -42.8541  -55.8491 H         1 UNK         0.0707 
     81 H81        25.0805  -43.0877  -55.1354 H         1 UNK         0.1034 
     82 H82        26.0179  -42.6474  -56.5412 H         1 UNK         0.1034 
     83 H83        23.9918  -44.9293  -56.4115 H         1 UNK         0.0482 
     84 H84        23.9136  -42.7345  -59.1674 H         1 UNK         0.3460 
     85 H85        22.5324  -41.8219  -58.6099 H         1 UNK         0.3460 
     86 H86        26.0726  -44.6280  -58.2799 H         1 UNK         0.2989 
     87 H87        24.5756  -46.7004  -60.7963 H         1 UNK         0.0559 
     88 H88        26.2436  -44.1305  -60.7928 H         1 UNK         0.0848 
     89 H89        24.6945  -44.3586  -61.5866 H         1 UNK         0.0848 
     90 H90        26.0939  -45.2698  -62.1282 H         1 UNK         0.0848 
     91 H91        26.3061  -47.8078  -60.0329 H         1 UNK         0.3144 
     92 H92        28.8194  -47.9980  -59.9306 H         1 UNK         0.0727 
     93 H93        29.6288  -46.5977  -57.3334 H         1 UNK         0.0790 
     94 H94        30.2980  -46.2464  -58.9237 H         1 UNK         0.0790 
     95 H95        30.5676  -47.8188  -58.1863 H         1 UNK         0.0790 
     96 H96        28.3268  -48.6266  -57.1608 H         1 UNK         0.3215 
     97 H97        25.5377  -50.8003  -57.7305 H         1 UNK         0.0863 
     98 H98        26.9994  -52.2742  -56.3524 H         1 UNK         0.0808 
     99 H99        28.4053  -51.2883  -56.7515 H         1 UNK         0.0808 
    100 H100       27.5788  -52.1945  -58.0083 H         1 UNK         0.0808 
    101 H101       26.8498  -49.8790  -55.3454 H         1 UNK         0.3118 
    102 H102       24.9627  -46.9348  -54.8819 H         1 UNK         0.0546 
    103 H103       24.5416  -49.5807  -53.4031 H         1 UNK         0.0828 
    104 H104       23.3007  -48.5389  -54.0725 H         1 UNK         0.0828 
    105 H105       24.2718  -47.9760  -52.7222 H         1 UNK         0.0828 
    106 H106       27.0154  -46.8136  -54.1601 H         1 UNK         0.3005 
    107 H107       29.0905  -47.3182  -53.6727 H         1 UNK         0.1257 
    108 H108       28.6062  -48.7391  -50.9964 H         1 UNK         0.0775 
    109 H109       28.3026  -47.0556  -51.3392 H         1 UNK         0.0775 
    110 H110       29.9710  -45.2274  -50.6612 H         1 UNK         0.0840 
    111 H111       31.6975  -45.3467  -50.8940 H         1 UNK         0.0840 
    112 H112       30.3503  -49.6877  -52.7747 H         1 UNK         0.2987 
    113 H113       30.5937  -51.5956  -55.0036 H         1 UNK         0.0785 
    114 H114       31.1133  -50.6522  -57.1974 H         1 UNK         0.0798 
    115 H115       32.5795  -51.3532  -56.5327 H         1 UNK         0.0798 
    116 H116       32.3487  -49.6039  -56.5262 H         1 UNK         0.0798 
    117 H117       32.0555  -51.6187  -53.3589 H         1 UNK         0.3079 
    118 H118       33.3568  -50.2618  -51.4959 H         1 UNK         0.0794 
    119 H119       33.8724  -52.4699  -52.5643 H         1 UNK         0.0786 
    120 H120       35.2890  -51.9063  -51.7048 H         1 UNK         0.0786 
    121 H121       35.2103  -51.7570  -53.4577 H         1 UNK         0.0786 
    122 H122       35.1713  -48.7363  -53.1023 H         1 UNK         0.3032 
    123 H123       36.5767  -47.1061  -50.4673 H         1 UNK         0.1094 
    124 H124       38.3854  -49.0740  -51.9797 H         1 UNK         0.0794 
    125 H125       38.9104  -47.5666  -51.2272 H         1 UNK         0.0794 
    126 H126       38.3076  -48.8823  -50.2341 H         1 UNK         0.0794 
    127 H127       37.2244  -47.3583  -53.3160 H         1 UNK         0.3016 
@<TRIPOS>BOND
     1    1    2 1    
     2    1   67 1    
     3    1   68 1    
     4    1   69 1    
     5    2    3 2    
     6    2    4 am   BACKBONE|DICT|INTERRES
     7    4    5 1    
     8    4   70 1    
     9    5    6 1    
    10    5   65 1    
    11    5   71 1    
    12    6    7 1    
    13    6   72 1    
    14    6   73 1    
    15    7    8 1    
    16    8    9 1    
    17    8   74 1    
    18    8   75 1    
    19    9   10 ar   
    20    9   14 ar   
    21   10   11 ar   
    22   10   76 1    
    23   11   12 ar   
    24   11   48 1    
    25   12   13 ar   
    26   12   77 1    
    27   13   14 ar   
    28   13   15 1    
    29   14   78 1    
    30   15   16 1    
    31   15   79 1    
    32   15   80 1    
    33   16   17 1    
    34   17   18 1    
    35   17   81 1    
    36   17   82 1    
    37   18   19 1    
    38   18   22 1    
    39   18   83 1    
    40   19   20 am   BACKBONE|DICT|INTERRES
    41   19   21 2    
    42   20   84 1    
    43   20   85 1    
    44   22   23 am   BACKBONE|DICT|INTERRES
    45   22   86 1    
    46   23   24 2    
    47   23   25 1    
    48   25   26 1    
    49   25   27 1    
    50   25   87 1    
    51   26   88 1    
    52   26   89 1    
    53   26   90 1    
    54   27   28 am   BACKBONE|DICT|INTERRES
    55   27   91 1    
    56   28   29 2    
    57   28   30 1    
    58   30   31 1    
    59   30   32 1    
    60   30   92 1    
    61   31   93 1    
    62   31   94 1    
    63   31   95 1    
    64   32   33 am   BACKBONE|DICT|INTERRES
    65   32   96 1    
    66   33   34 2    
    67   33   35 1    
    68   35   36 1    
    69   35   37 1    
    70   35   97 1    
    71   36   98 1    
    72   36   99 1    
    73   36  100 1    
    74   37   38 am   BACKBONE|DICT|INTERRES
    75   37  101 1    
    76   38   39 2    
    77   38   40 1    
    78   40   41 1    
    79   40   42 1    
    80   40  102 1    
    81   41  103 1    
    82   41  104 1    
    83   41  105 1    
    84   42   43 am   BACKBONE|DICT|INTERRES
    85   42  106 1    
    86   43   44 2    
    87   43   45 1    
    88   45   46 1    
    89   45   49 1    
    90   45  107 1    
    91   46   47 1    
    92   46  108 1    
    93   46  109 1    
    94   47   48 1    
    95   48  110 1    
    96   48  111 1    
    97   49   50 am   BACKBONE|DICT|INTERRES
    98   49  112 1    
    99   50   51 2    
   100   50   52 1    
   101   52   53 1    
   102   52   54 1    
   103   52  113 1    
   104   53  114 1    
   105   53  115 1    
   106   53  116 1    
   107   54   55 am   BACKBONE|DICT|INTERRES
   108   54  117 1    
   109   55   56 2    
   110   55   57 1    
   111   57   58 1    
   112   57   59 1    
   113   57  118 1    
   114   58  119 1    
   115   58  120 1    
   116   58  121 1    
   117   59   60 am   BACKBONE|DICT|INTERRES
   118   59  122 1    
   119   60   61 2    
   120   60   62 1    
   121   62   63 1    
   122   62   64 1    
   123   62  123 1    
   124   63  124 1    
   125   63  125 1    
   126   63  126 1    
   127   64   65 am   BACKBONE|DICT|INTERRES
   128   64  127 1    
   129   65   66 2    
@<TRIPOS>SUBSTRUCTURE
     1 UNK         1 GROUP             0       ****    0 ROOT    
