@<TRIPOS>MOLECULE
3R134
127   129    1
SMALL
USER_CHARGES


@<TRIPOS>ATOM
      1 CA         37.3229  -44.5707  -50.6652 C.3       0 UNK        -0.1968 
      2 C          36.7954  -45.6360  -51.6144 C.2       0 UNK         0.4852 
      3 O          37.0542  -46.8233  -51.4098 O.2       0 UNK        -0.5359 
      4 N          36.0420  -45.2286  -52.6439 N.am      1 UNK        -0.4300 
      5 CA         35.4436  -46.0792  -53.6821 C.3       1 UNK         0.0863 
      6 C6         35.2283  -45.2822  -54.9991 C.3       11 UNK        -0.0953 
      7 S7         34.2488  -43.7457  -54.8103 S.3       11 UNK        -0.2369 
      8 C8         32.7728  -44.1247  -55.8156 C.3       11 UNK         0.0226 
      9 C9         31.4646  -43.6450  -55.2013 C.ar      11 UNK        -0.0699 
     10 C10        31.2158  -43.7979  -53.8344 C.ar      11 UNK        -0.0804 
     11 C11        29.9787  -43.4459  -53.2894 C.ar      11 UNK        -0.0871 
     12 C12        28.9863  -42.9170  -54.1189 C.ar      11 UNK        -0.1008 
     13 C13        29.2182  -42.7685  -55.4893 C.ar      11 UNK        -0.0735 
     14 C14        30.4583  -43.1312  -56.0241 C.ar      11 UNK        -0.0945 
     15 C15        28.1144  -42.2654  -56.4030 C.3       11 UNK         0.0169 
     16 S16        26.9998  -43.6309  -56.8403 S.3       11 UNK        -0.2669 
     17 C17        26.0664  -42.9381  -58.2500 C.3       11 UNK        -0.0850 
     18 CA         26.5723  -43.3376  -59.6766 C.3       10 UNK         0.0855 
     19 C          27.6482  -42.4089  -60.3252 C.2       10 UNK         0.5543 
     20 N          27.8088  -41.1745  -59.8658 N.am      10 UNK        -0.7343 
     21 O          28.2835  -42.7674  -61.3152 O.2       10 UNK        -0.5027 
     22 N          26.8054  -44.7883  -59.8132 N.am      10 UNK        -0.4495 
     23 C          27.9385  -45.4735  -59.5950 C.2       10 UNK         0.4903 
     24 O          29.0257  -44.9750  -59.2980 O.2       10 UNK        -0.4860 
     25 CA         27.7947  -47.0032  -59.6535 C.3       9 UNK         0.0227 
     26 CB         29.1378  -47.7231  -59.8704 C.3       9 UNK        -0.1964 
     27 N          27.1959  -47.4795  -58.4081 N.am      9 UNK        -0.4231 
     28 C          25.8873  -47.4530  -58.1215 C.2       9 UNK         0.5014 
     29 O          25.0240  -47.0729  -58.9170 O.2       9 UNK        -0.5270 
     30 CA         25.4888  -47.9280  -56.7107 C.3       8 UNK         0.0284 
     31 CB         23.9689  -48.1370  -56.5423 C.3       8 UNK        -0.1977 
     32 N          26.2363  -49.1175  -56.2878 N.am      8 UNK        -0.4342 
     33 C          26.2533  -50.3272  -56.8696 C.2       8 UNK         0.5039 
     34 O          25.5511  -50.6373  -57.8331 O.2       8 UNK        -0.5547 
     35 CA         27.2361  -51.3740  -56.3080 C.3       7 UNK         0.0281 
     36 CB         28.3871  -51.6030  -57.3015 C.3       7 UNK        -0.1963 
     37 N          27.7977  -51.0206  -55.0008 N.am      7 UNK        -0.4444 
     38 C          27.1193  -51.0556  -53.8458 C.2       7 UNK         0.5104 
     39 O          25.9600  -51.4576  -53.7438 O.2       7 UNK        -0.5100 
     40 CA         27.8426  -50.5159  -52.5999 C.3       6 UNK         0.0396 
     41 CB         28.7107  -51.6105  -51.9605 C.3       6 UNK        -0.1801 
     42 N          28.6662  -49.3331  -52.8693 N.am      6 UNK        -0.4747 
     43 C          28.2073  -48.1512  -53.3112 C.2       6 UNK         0.5012 
     44 O          27.0232  -47.9265  -53.5613 O.2       6 UNK        -0.5003 
     45 CA         29.2639  -47.0567  -53.5671 C.3       5 UNK         0.0782 
     46 C46        29.8138  -46.4866  -52.2316 C.3       11 UNK        -0.0868 
     47 S47        28.7295  -45.1921  -51.5378 S.3       11 UNK        -0.2515 
     48 C48        29.7050  -43.6772  -51.8117 C.3       11 UNK         0.0199 
     49 N          30.3292  -47.5466  -54.4495 N.am      5 UNK        -0.4607 
     50 C          30.1440  -47.9943  -55.7010 C.2       4 UNK         0.5031 
     51 O          29.0704  -47.9344  -56.3006 O.2       4 UNK        -0.5119 
     52 CA         31.3333  -48.6950  -56.3807 C.3       4 UNK         0.0263 
     53 CB         32.2001  -47.7210  -57.1935 C.3       4 UNK        -0.1967 
     54 N          32.1718  -49.4257  -55.4296 N.am      4 UNK        -0.4237 
     55 C          31.8009  -50.5496  -54.8017 C.2       3 UNK         0.4908 
     56 O          30.7323  -51.1263  -55.0015 O.2       3 UNK        -0.5102 
     57 CA         32.7689  -51.0886  -53.7355 C.3       3 UNK         0.0241 
     58 CB         33.9290  -51.8576  -54.3877 C.3       3 UNK        -0.1971 
     59 N          33.2981  -50.0270  -52.8731 N.am      3 UNK        -0.4139 
     60 C          32.5480  -49.3015  -52.0317 C.2       2 UNK         0.5016 
     61 O          31.3423  -49.4818  -51.8657 O.2       2 UNK        -0.5319 
     62 CA         33.2425  -48.1615  -51.2693 C.3       2 UNK         0.0286 
     63 CB         33.7945  -48.6706  -49.9289 C.3       2 UNK        -0.1963 
     64 N          34.3152  -47.4893  -52.0104 N.am      2 UNK        -0.4790 
     65 C          34.1906  -46.8419  -53.1777 C.2       1 UNK         0.5024 
     66 O          33.1462  -46.8399  -53.8310 O.2       1 UNK        -0.4888 
     67 H67        36.9533  -44.7512  -49.6562 H         1 UNK         0.0892 
     68 H68        38.4120  -44.5980  -50.6397 H         1 UNK         0.0892 
     69 H69        37.0158  -43.5690  -50.9652 H         1 UNK         0.0892 
     70 H70        35.8335  -44.2445  -52.7426 H         1 UNK         0.3107 
     71 H71        36.1700  -46.8600  -53.9176 H         1 UNK         0.0773 
     72 H72        34.8017  -45.9219  -55.7722 H         1 UNK         0.0680 
     73 H73        36.2022  -44.9861  -55.3918 H         1 UNK         0.0680 
     74 H74        32.9146  -43.7050  -56.8125 H         1 UNK         0.0650 
     75 H75        32.6748  -45.1984  -55.9408 H         1 UNK         0.0650 
     76 H76        31.9782  -44.2266  -53.1991 H         1 UNK         0.1397 
     77 H77        28.0205  -42.6590  -53.7059 H         1 UNK         0.1363 
     78 H78        30.6255  -43.0445  -57.0894 H         1 UNK         0.1355 
     79 H79        28.5494  -41.8385  -57.3067 H         1 UNK         0.0707 
     80 H80        27.5495  -41.4689  -55.9164 H         1 UNK         0.0707 
     81 H81        25.0495  -43.3183  -58.1405 H         1 UNK         0.1034 
     82 H82        25.9585  -41.8596  -58.1335 H         1 UNK         0.1034 
     83 H83        25.7177  -43.1684  -60.3328 H         1 UNK         0.0482 
     84 H84        28.4805  -40.5736  -60.3174 H         1 UNK         0.3460 
     85 H85        27.2678  -40.8246  -59.0927 H         1 UNK         0.3460 
     86 H86        25.9758  -45.3390  -59.9947 H         1 UNK         0.2989 
     87 H87        27.1426  -47.2572  -60.4920 H         1 UNK         0.0559 
     88 H88        29.8287  -47.5438  -59.0477 H         1 UNK         0.0848 
     89 H89        29.6216  -47.3786  -60.7852 H         1 UNK         0.0848 
     90 H90        28.9995  -48.8006  -59.9599 H         1 UNK         0.0848 
     91 H91        27.8449  -47.7315  -57.6633 H         1 UNK         0.3144 
     92 H92        25.7873  -47.1282  -56.0311 H         1 UNK         0.0727 
     93 H93        23.5835  -48.8883  -57.2321 H         1 UNK         0.0790 
     94 H94        23.4251  -47.2112  -56.7335 H         1 UNK         0.0790 
     95 H95        23.7234  -48.4534  -55.5285 H         1 UNK         0.0790 
     96 H96        26.8614  -48.9664  -55.5044 H         1 UNK         0.3215 
     97 H97        26.6862  -52.3114  -56.2002 H         1 UNK         0.0863 
     98 H98        29.0784  -52.3660  -56.9431 H         1 UNK         0.0808 
     99 H99        28.9540  -50.6882  -57.4736 H         1 UNK         0.0808 
    100 H100       28.0087  -51.9372  -58.2684 H         1 UNK         0.0808 
    101 H101       28.7799  -50.7591  -54.9783 H         1 UNK         0.3118 
    102 H102       27.0790  -50.2231  -51.8765 H         1 UNK         0.0546 
    103 H103       28.1165  -52.4946  -51.7259 H         1 UNK         0.0828 
    104 H104       29.1609  -51.2655  -51.0295 H         1 UNK         0.0828 
    105 H105       29.5176  -51.9245  -52.6235 H         1 UNK         0.0828 
    106 H106       29.6600  -49.4183  -52.6597 H         1 UNK         0.3005 
    107 H107       28.7724  -46.2481  -54.1146 H         1 UNK         0.1257 
    108 H108       30.8112  -46.0737  -52.3742 H         1 UNK         0.0775 
    109 H109       29.9400  -47.2648  -51.4774 H         1 UNK         0.0775 
    110 H110       29.1607  -42.8249  -51.4023 H         1 UNK         0.0840 
    111 H111       30.6382  -43.7408  -51.2496 H         1 UNK         0.0840 
    112 H112       31.2674  -47.5664  -54.0660 H         1 UNK         0.2987 
    113 H113       30.9091  -49.4156  -57.0825 H         1 UNK         0.0785 
    114 H114       32.7043  -48.2403  -58.0085 H         1 UNK         0.0798 
    115 H115       32.9719  -47.2629  -56.5794 H         1 UNK         0.0798 
    116 H116       31.6083  -46.9191  -57.6372 H         1 UNK         0.0798 
    117 H117       33.0429  -48.9898  -55.1643 H         1 UNK         0.3079 
    118 H118       32.2102  -51.7847  -53.1059 H         1 UNK         0.0794 
    119 H119       33.5541  -52.6603  -55.0244 H         1 UNK         0.0786 
    120 H120       34.5717  -52.3167  -53.6361 H         1 UNK         0.0786 
    121 H121       34.5489  -51.2107  -55.0097 H         1 UNK         0.0786 
    122 H122       34.2834  -49.8171  -52.9400 H         1 UNK         0.3032 
    123 H123       32.4799  -47.4105  -51.0555 H         1 UNK         0.1094 
    124 H124       34.1878  -47.8522  -49.3254 H         1 UNK         0.0794 
    125 H125       33.0125  -49.1562  -49.3429 H         1 UNK         0.0794 
    126 H126       34.5954  -49.3972  -50.0714 H         1 UNK         0.0794 
    127 H127       35.2280  -47.4463  -51.5636 H         1 UNK         0.3016 
@<TRIPOS>BOND
     1    1    2 1    
     2    1   67 1    
     3    1   68 1    
     4    1   69 1    
     5    2    3 2    
     6    2    4 am   BACKBONE|DICT|INTERRES
     7    4    5 1    
     8    4   70 1    
     9    5    6 1    
    10    5   65 1    
    11    5   71 1    
    12    6    7 1    
    13    6   72 1    
    14    6   73 1    
    15    7    8 1    
    16    8    9 1    
    17    8   74 1    
    18    8   75 1    
    19    9   10 ar   
    20    9   14 ar   
    21   10   11 ar   
    22   10   76 1    
    23   11   12 ar   
    24   11   48 1    
    25   12   13 ar   
    26   12   77 1    
    27   13   14 ar   
    28   13   15 1    
    29   14   78 1    
    30   15   16 1    
    31   15   79 1    
    32   15   80 1    
    33   16   17 1    
    34   17   18 1    
    35   17   81 1    
    36   17   82 1    
    37   18   19 1    
    38   18   22 1    
    39   18   83 1    
    40   19   20 am   BACKBONE|DICT|INTERRES
    41   19   21 2    
    42   20   84 1    
    43   20   85 1    
    44   22   23 am   BACKBONE|DICT|INTERRES
    45   22   86 1    
    46   23   24 2    
    47   23   25 1    
    48   25   26 1    
    49   25   27 1    
    50   25   87 1    
    51   26   88 1    
    52   26   89 1    
    53   26   90 1    
    54   27   28 am   BACKBONE|DICT|INTERRES
    55   27   91 1    
    56   28   29 2    
    57   28   30 1    
    58   30   31 1    
    59   30   32 1    
    60   30   92 1    
    61   31   93 1    
    62   31   94 1    
    63   31   95 1    
    64   32   33 am   BACKBONE|DICT|INTERRES
    65   32   96 1    
    66   33   34 2    
    67   33   35 1    
    68   35   36 1    
    69   35   37 1    
    70   35   97 1    
    71   36   98 1    
    72   36   99 1    
    73   36  100 1    
    74   37   38 am   BACKBONE|DICT|INTERRES
    75   37  101 1    
    76   38   39 2    
    77   38   40 1    
    78   40   41 1    
    79   40   42 1    
    80   40  102 1    
    81   41  103 1    
    82   41  104 1    
    83   41  105 1    
    84   42   43 am   BACKBONE|DICT|INTERRES
    85   42  106 1    
    86   43   44 2    
    87   43   45 1    
    88   45   46 1    
    89   45   49 1    
    90   45  107 1    
    91   46   47 1    
    92   46  108 1    
    93   46  109 1    
    94   47   48 1    
    95   48  110 1    
    96   48  111 1    
    97   49   50 am   BACKBONE|DICT|INTERRES
    98   49  112 1    
    99   50   51 2    
   100   50   52 1    
   101   52   53 1    
   102   52   54 1    
   103   52  113 1    
   104   53  114 1    
   105   53  115 1    
   106   53  116 1    
   107   54   55 am   BACKBONE|DICT|INTERRES
   108   54  117 1    
   109   55   56 2    
   110   55   57 1    
   111   57   58 1    
   112   57   59 1    
   113   57  118 1    
   114   58  119 1    
   115   58  120 1    
   116   58  121 1    
   117   59   60 am   BACKBONE|DICT|INTERRES
   118   59  122 1    
   119   60   61 2    
   120   60   62 1    
   121   62   63 1    
   122   62   64 1    
   123   62  123 1    
   124   63  124 1    
   125   63  125 1    
   126   63  126 1    
   127   64   65 am   BACKBONE|DICT|INTERRES
   128   64  127 1    
   129   65   66 2    
@<TRIPOS>SUBSTRUCTURE
     1 UNK         1 GROUP             0       ****    0 ROOT    
