@<TRIPOS>MOLECULE
3R134
127   129    1
SMALL
USER_CHARGES


@<TRIPOS>ATOM
      1 CA         31.8769  -46.7453  -55.4186 C.3       0 UNK        -0.1968 
      2 C          32.8193  -46.7382  -54.2301 C.2       0 UNK         0.4852 
      3 O          32.8377  -47.6826  -53.4410 O.2       0 UNK        -0.5359 
      4 N          33.6349  -45.6872  -54.1175 N.am      1 UNK        -0.4300 
      5 CA         34.7658  -45.6006  -53.1950 C.3       1 UNK         0.0863 
      6 C6         35.3610  -44.1686  -53.1105 C.3       11 UNK        -0.0953 
      7 S7         35.4498  -43.2715  -54.7042 S.3       11 UNK        -0.2369 
      8 C8         34.1692  -41.9890  -54.4920 C.3       11 UNK         0.0226 
      9 C9         32.7525  -42.5501  -54.5523 C.ar      11 UNK        -0.0699 
     10 C10        32.0552  -42.8448  -53.3749 C.ar      11 UNK        -0.0804 
     11 C11        30.7435  -43.3298  -53.4247 C.ar      11 UNK        -0.0871 
     12 C12        30.1272  -43.5102  -54.6643 C.ar      11 UNK        -0.1008 
     13 C13        30.8122  -43.2232  -55.8482 C.ar      11 UNK        -0.0735 
     14 C14        32.1251  -42.7447  -55.7876 C.ar      11 UNK        -0.0945 
     15 C15        30.1225  -43.4347  -57.1857 C.3       11 UNK         0.0169 
     16 S16        28.9517  -42.0833  -57.5280 S.3       11 UNK        -0.2669 
     17 C17        27.5091  -43.0180  -58.1384 C.3       11 UNK        -0.0850 
     18 CA         26.5898  -43.5279  -56.9859 C.3       10 UNK         0.0855 
     19 C          25.5110  -42.4972  -56.5289 C.2       10 UNK         0.5543 
     20 N          24.3528  -42.9346  -56.0492 N.am      10 UNK        -0.7343 
     21 O          25.7268  -41.2892  -56.5828 O.2       10 UNK        -0.5027 
     22 N          26.0796  -44.8817  -57.2532 N.am      10 UNK        -0.4495 
     23 C          25.2827  -45.2320  -58.2722 C.2       10 UNK         0.4903 
     24 O          24.8235  -44.4373  -59.0944 O.2       10 UNK        -0.4860 
     25 CA         24.9819  -46.7374  -58.3950 C.3       9 UNK         0.0227 
     26 CB         24.2318  -47.1074  -59.6919 C.3       9 UNK        -0.1964 
     27 N          26.1933  -47.5501  -58.2379 N.am      9 UNK        -0.4231 
     28 C          27.3084  -47.5222  -58.9861 C.2       9 UNK         0.5014 
     29 O          27.4499  -46.8239  -59.9908 O.2       9 UNK        -0.5270 
     30 CA         28.4850  -48.4071  -58.5285 C.3       8 UNK         0.0284 
     31 CB         29.5952  -47.5403  -57.9152 C.3       8 UNK        -0.1977 
     32 N          28.1043  -49.4420  -57.5631 N.am      8 UNK        -0.4342 
     33 C          27.3747  -50.5273  -57.8568 C.2       8 UNK         0.5039 
     34 O          27.0228  -50.8335  -58.9963 O.2       8 UNK        -0.5547 
     35 CA         26.9224  -51.3871  -56.6675 C.3       7 UNK         0.0281 
     36 CB         28.0220  -52.3839  -56.2687 C.3       7 UNK        -0.1963 
     37 N          26.5411  -50.5639  -55.5141 N.am      7 UNK        -0.4444 
     38 C          25.4182  -49.8320  -55.4495 C.2       7 UNK         0.5104 
     39 O          24.5730  -49.7968  -56.3428 O.2       7 UNK        -0.5100 
     40 CA         25.2110  -48.9692  -54.1929 C.3       6 UNK         0.0396 
     41 CB         24.5137  -49.7826  -53.0913 C.3       6 UNK        -0.1801 
     42 N          26.4602  -48.4115  -53.6720 N.am      6 UNK        -0.4747 
     43 C          27.1666  -47.4357  -54.2620 C.2       6 UNK         0.5012 
     44 O          26.8196  -46.8648  -55.2971 O.2       6 UNK        -0.5003 
     45 CA         28.5117  -47.0666  -53.6066 C.3       5 UNK         0.0782 
     46 C46        28.3306  -45.9237  -52.5771 C.3       11 UNK        -0.0868 
     47 S47        29.9036  -45.4169  -51.7910 S.3       11 UNK        -0.2515 
     48 C48        29.9833  -43.6299  -52.1404 C.3       11 UNK         0.0199 
     49 N          29.1975  -48.2310  -53.0293 N.am      5 UNK        -0.4607 
     50 C          29.6336  -49.2892  -53.7220 C.2       4 UNK         0.5031 
     51 O          29.4352  -49.4511  -54.9293 O.2       4 UNK        -0.5119 
     52 CA         30.4147  -50.3474  -52.9411 C.3       4 UNK         0.0263 
     53 CB         29.5908  -51.6295  -52.7372 C.3       4 UNK        -0.1967 
     54 N          31.6322  -50.6330  -53.6910 N.am      4 UNK        -0.4237 
     55 C          32.8227  -50.8940  -53.1397 C.2       3 UNK         0.4908 
     56 O          32.9813  -51.1246  -51.9387 O.2       3 UNK        -0.5102 
     57 CA         34.0595  -50.8517  -54.0520 C.3       3 UNK         0.0241 
     58 CB         33.7594  -50.5748  -55.5413 C.3       3 UNK        -0.1971 
     59 N          34.9376  -49.8096  -53.5252 N.am      3 UNK        -0.4139 
     60 C          36.2693  -49.8829  -53.4054 C.2       2 UNK         0.5016 
     61 O          36.9344  -50.8341  -53.8203 O.2       2 UNK        -0.5319 
     62 CA         36.9823  -48.7260  -52.6660 C.3       2 UNK         0.0286 
     63 CB         38.3948  -48.4409  -53.2226 C.3       2 UNK        -0.1963 
     64 N          36.1806  -47.4959  -52.5603 N.am      2 UNK        -0.4790 
     65 C          35.8123  -46.6771  -53.5574 C.2       1 UNK         0.5024 
     66 O          36.2090  -46.7772  -54.7204 O.2       1 UNK        -0.4888 
     67 H67        31.0900  -46.0096  -55.2823 H         1 UNK         0.0892 
     68 H68        32.4121  -46.5092  -56.3381 H         1 UNK         0.0892 
     69 H69        31.4220  -47.7265  -55.5363 H         1 UNK         0.0892 
     70 H70        33.5768  -44.9299  -54.7843 H         1 UNK         0.3107 
     71 H71        34.3762  -45.8402  -52.2029 H         1 UNK         0.0773 
     72 H72        34.7647  -43.5789  -52.4141 H         1 UNK         0.0680 
     73 H73        36.3603  -44.1887  -52.6715 H         1 UNK         0.0680 
     74 H74        34.2945  -41.2431  -55.2783 H         1 UNK         0.0650 
     75 H75        34.3338  -41.4611  -53.5514 H         1 UNK         0.0650 
     76 H76        32.5321  -42.6905  -52.4169 H         1 UNK         0.1397 
     77 H77        29.1109  -43.8731  -54.7100 H         1 UNK         0.1363 
     78 H78        32.6563  -42.5133  -56.7009 H         1 UNK         0.1355 
     79 H79        30.8506  -43.4939  -57.9962 H         1 UNK         0.0707 
     80 H80        29.6045  -44.3948  -57.1681 H         1 UNK         0.0707 
     81 H81        27.8816  -43.8509  -58.7379 H         1 UNK         0.1034 
     82 H82        26.9484  -42.3959  -58.8386 H         1 UNK         0.1034 
     83 H83        27.2114  -43.6679  -56.1020 H         1 UNK         0.0482 
     84 H84        24.1660  -43.9228  -55.9933 H         1 UNK         0.3460 
     85 H85        23.6587  -42.2692  -55.7474 H         1 UNK         0.3460 
     86 H86        26.3772  -45.6043  -56.6009 H         1 UNK         0.2989 
     87 H87        24.3339  -46.9912  -57.5547 H         1 UNK         0.0559 
     88 H88        24.8029  -46.8416  -60.5820 H         1 UNK         0.0848 
     89 H89        23.2760  -46.5856  -59.7521 H         1 UNK         0.0848 
     90 H90        24.0208  -48.1759  -59.7352 H         1 UNK         0.0848 
     91 H91        26.2075  -48.1432  -57.4200 H         1 UNK         0.3144 
     92 H92        28.8859  -48.8993  -59.4171 H         1 UNK         0.0727 
     93 H93        30.4751  -48.1408  -57.6860 H         1 UNK         0.0790 
     94 H94        29.2637  -47.0543  -56.9971 H         1 UNK         0.0790 
     95 H95        29.9108  -46.7566  -58.6055 H         1 UNK         0.0790 
     96 H96        28.4214  -49.3189  -56.6046 H         1 UNK         0.3215 
     97 H97        26.0460  -51.9586  -56.9819 H         1 UNK         0.0863 
     98 H98        28.9515  -51.8799  -56.0033 H         1 UNK         0.0808 
     99 H99        28.2481  -53.0586  -57.0954 H         1 UNK         0.0808 
    100 H100       27.7145  -53.0007  -55.4242 H         1 UNK         0.0808 
    101 H101       27.2084  -50.4952  -54.7598 H         1 UNK         0.3118 
    102 H102       24.5565  -48.1383  -54.4656 H         1 UNK         0.0546 
    103 H103       24.2893  -49.1635  -52.2226 H         1 UNK         0.0828 
    104 H104       25.1238  -50.6227  -52.7574 H         1 UNK         0.0828 
    105 H105       23.5668  -50.1901  -53.4486 H         1 UNK         0.0828 
    106 H106       26.8242  -48.8155  -52.8208 H         1 UNK         0.3005 
    107 H107       29.1407  -46.6910  -54.4126 H         1 UNK         0.1257 
    108 H108       27.6499  -46.2328  -51.7815 H         1 UNK         0.0775 
    109 H109       27.8620  -45.0594  -53.0504 H         1 UNK         0.0775 
    110 H110       28.9805  -43.2031  -52.1864 H         1 UNK         0.0840 
    111 H111       30.4724  -43.1407  -51.2966 H         1 UNK         0.0840 
    112 H112       29.4271  -48.1590  -52.0483 H         1 UNK         0.2987 
    113 H113       30.6754  -49.9330  -51.9644 H         1 UNK         0.0785 
    114 H114       30.1322  -52.3484  -52.1221 H         1 UNK         0.0798 
    115 H115       28.6481  -51.4160  -52.2320 H         1 UNK         0.0798 
    116 H116       29.3566  -52.1159  -53.6829 H         1 UNK         0.0798 
    117 H117       31.5786  -50.4161  -54.6774 H         1 UNK         0.3079 
    118 H118       34.5437  -51.8268  -53.9678 H         1 UNK         0.0794 
    119 H119       33.1017  -51.3358  -55.9632 H         1 UNK         0.0786 
    120 H120       34.6775  -50.5884  -56.1292 H         1 UNK         0.0786 
    121 H121       33.2926  -49.6006  -55.6911 H         1 UNK         0.0786 
    122 H122       34.4517  -48.9955  -53.1614 H         1 UNK         0.3032 
    123 H123       37.1104  -49.0813  -51.6420 H         1 UNK         0.1094 
    124 H124       38.3728  -48.1872  -54.2826 H         1 UNK         0.0794 
    125 H125       38.8749  -47.6206  -52.6893 H         1 UNK         0.0794 
    126 H126       39.0391  -49.3145  -53.1161 H         1 UNK         0.0794 
    127 H127       35.7890  -47.3234  -51.6434 H         1 UNK         0.3016 
@<TRIPOS>BOND
     1    1    2 1    
     2    1   67 1    
     3    1   68 1    
     4    1   69 1    
     5    2    3 2    
     6    2    4 am   BACKBONE|DICT|INTERRES
     7    4    5 1    
     8    4   70 1    
     9    5    6 1    
    10    5   65 1    
    11    5   71 1    
    12    6    7 1    
    13    6   72 1    
    14    6   73 1    
    15    7    8 1    
    16    8    9 1    
    17    8   74 1    
    18    8   75 1    
    19    9   10 ar   
    20    9   14 ar   
    21   10   11 ar   
    22   10   76 1    
    23   11   12 ar   
    24   11   48 1    
    25   12   13 ar   
    26   12   77 1    
    27   13   14 ar   
    28   13   15 1    
    29   14   78 1    
    30   15   16 1    
    31   15   79 1    
    32   15   80 1    
    33   16   17 1    
    34   17   18 1    
    35   17   81 1    
    36   17   82 1    
    37   18   19 1    
    38   18   22 1    
    39   18   83 1    
    40   19   20 am   BACKBONE|DICT|INTERRES
    41   19   21 2    
    42   20   84 1    
    43   20   85 1    
    44   22   23 am   BACKBONE|DICT|INTERRES
    45   22   86 1    
    46   23   24 2    
    47   23   25 1    
    48   25   26 1    
    49   25   27 1    
    50   25   87 1    
    51   26   88 1    
    52   26   89 1    
    53   26   90 1    
    54   27   28 am   BACKBONE|DICT|INTERRES
    55   27   91 1    
    56   28   29 2    
    57   28   30 1    
    58   30   31 1    
    59   30   32 1    
    60   30   92 1    
    61   31   93 1    
    62   31   94 1    
    63   31   95 1    
    64   32   33 am   BACKBONE|DICT|INTERRES
    65   32   96 1    
    66   33   34 2    
    67   33   35 1    
    68   35   36 1    
    69   35   37 1    
    70   35   97 1    
    71   36   98 1    
    72   36   99 1    
    73   36  100 1    
    74   37   38 am   BACKBONE|DICT|INTERRES
    75   37  101 1    
    76   38   39 2    
    77   38   40 1    
    78   40   41 1    
    79   40   42 1    
    80   40  102 1    
    81   41  103 1    
    82   41  104 1    
    83   41  105 1    
    84   42   43 am   BACKBONE|DICT|INTERRES
    85   42  106 1    
    86   43   44 2    
    87   43   45 1    
    88   45   46 1    
    89   45   49 1    
    90   45  107 1    
    91   46   47 1    
    92   46  108 1    
    93   46  109 1    
    94   47   48 1    
    95   48  110 1    
    96   48  111 1    
    97   49   50 am   BACKBONE|DICT|INTERRES
    98   49  112 1    
    99   50   51 2    
   100   50   52 1    
   101   52   53 1    
   102   52   54 1    
   103   52  113 1    
   104   53  114 1    
   105   53  115 1    
   106   53  116 1    
   107   54   55 am   BACKBONE|DICT|INTERRES
   108   54  117 1    
   109   55   56 2    
   110   55   57 1    
   111   57   58 1    
   112   57   59 1    
   113   57  118 1    
   114   58  119 1    
   115   58  120 1    
   116   58  121 1    
   117   59   60 am   BACKBONE|DICT|INTERRES
   118   59  122 1    
   119   60   61 2    
   120   60   62 1    
   121   62   63 1    
   122   62   64 1    
   123   62  123 1    
   124   63  124 1    
   125   63  125 1    
   126   63  126 1    
   127   64   65 am   BACKBONE|DICT|INTERRES
   128   64  127 1    
   129   65   66 2    
@<TRIPOS>SUBSTRUCTURE
     1 UNK         1 GROUP             0       ****    0 ROOT    
