@<TRIPOS>MOLECULE
3R134
127   129    1
SMALL
USER_CHARGES


@<TRIPOS>ATOM
      1 CA         32.9450  -46.3778  -51.0046 C.3       0 UNK        -0.1968 
      2 C          34.1306  -45.9114  -51.8366 C.2       0 UNK         0.4852 
      3 O          34.9214  -45.0904  -51.3688 O.2       0 UNK        -0.5359 
      4 N          34.2444  -46.4291  -53.0635 N.am      1 UNK        -0.4300 
      5 CA         35.3172  -46.1475  -54.0205 C.3       1 UNK         0.0863 
      6 C6         34.7726  -45.5849  -55.3680 C.3       11 UNK        -0.0953 
      7 S7         33.6450  -44.1655  -55.1588 S.3       11 UNK        -0.2369 
      8 C8         32.0556  -45.0173  -55.4054 C.3       11 UNK         0.0226 
      9 C9         30.8852  -44.2359  -54.8349 C.ar      11 UNK        -0.0699 
     10 C10        30.7281  -44.1336  -53.4507 C.ar      11 UNK        -0.0804 
     11 C11        29.6171  -43.4841  -52.9055 C.ar      11 UNK        -0.0871 
     12 C12        28.6676  -42.9147  -53.7600 C.ar      11 UNK        -0.1008 
     13 C13        28.8229  -42.9977  -55.1473 C.ar      11 UNK        -0.0735 
     14 C14        29.9323  -43.6613  -55.6802 C.ar      11 UNK        -0.0945 
     15 C15        27.7888  -42.3835  -56.0760 C.3       11 UNK         0.0169 
     16 S16        26.5453  -43.6174  -56.5535 S.3       11 UNK        -0.2669 
     17 C17        25.5566  -42.6926  -57.7797 C.3       11 UNK        -0.0850 
     18 CA         26.0416  -42.7383  -59.2657 C.3       10 UNK         0.0855 
     19 C          27.0771  -41.6337  -59.6485 C.2       10 UNK         0.5543 
     20 N          27.8835  -41.8185  -60.6859 N.am      10 UNK        -0.7343 
     21 O          27.1183  -40.5707  -59.0336 O.2       10 UNK        -0.5027 
     22 N          26.2860  -44.1047  -59.7759 N.am      10 UNK        -0.4495 
     23 C          27.4017  -44.8393  -59.6551 C.2       10 UNK         0.4903 
     24 O          28.4568  -44.4437  -59.1539 O.2       10 UNK        -0.4860 
     25 CA         27.3370  -46.2583  -60.2439 C.3       9 UNK         0.0227 
     26 CB         27.7980  -46.2545  -61.7108 C.3       9 UNK        -0.1964 
     27 N          28.1825  -47.1733  -59.4758 N.am      9 UNK        -0.4231 
     28 C          27.8649  -47.6625  -58.2706 C.2       9 UNK         0.5014 
     29 O          26.7676  -47.5024  -57.7299 O.2       9 UNK        -0.5270 
     30 CA         28.9880  -48.4232  -57.5429 C.3       8 UNK         0.0284 
     31 CB         29.9166  -47.4325  -56.8208 C.3       8 UNK        -0.1977 
     32 N          28.4779  -49.3790  -56.5617 N.am      8 UNK        -0.4342 
     33 C          27.7881  -50.4919  -56.8408 C.2       8 UNK         0.5039 
     34 O          27.5467  -50.8833  -57.9839 O.2       8 UNK        -0.5547 
     35 CA         27.2934  -51.3176  -55.6436 C.3       7 UNK         0.0281 
     36 CB         28.4026  -52.2585  -55.1434 C.3       7 UNK        -0.1963 
     37 N          26.8552  -50.4640  -54.5367 N.am      7 UNK        -0.4444 
     38 C          25.5816  -50.1395  -54.2770 C.2       7 UNK         0.5104 
     39 O          24.6277  -50.5215  -54.9562 O.2       7 UNK        -0.5100 
     40 CA         25.3047  -49.2753  -53.0307 C.3       6 UNK         0.0396 
     41 CB         24.7699  -50.1526  -51.8869 C.3       6 UNK        -0.1801 
     42 N          26.4813  -48.5445  -52.5529 N.am      6 UNK        -0.4747 
     43 C          26.9120  -47.3788  -53.0574 C.2       6 UNK         0.5012 
     44 O          26.3246  -46.7640  -53.9460 O.2       6 UNK        -0.5003 
     45 CA         28.2245  -46.8066  -52.4754 C.3       5 UNK         0.0782 
     46 C46        27.9010  -45.7814  -51.3576 C.3       11 UNK        -0.0868 
     47 S47        29.3927  -45.0432  -50.6070 S.3       11 UNK        -0.2515 
     48 C48        29.4440  -43.3998  -51.3947 C.3       11 UNK         0.0199 
     49 N          29.1754  -47.8357  -52.0206 N.am      5 UNK        -0.4607 
     50 C          29.6781  -48.8201  -52.7753 C.2       4 UNK         0.5031 
     51 O          29.3092  -49.0514  -53.9269 O.2       4 UNK        -0.5119 
     52 CA         30.7106  -49.7443  -52.1090 C.3       4 UNK         0.0263 
     53 CB         29.9919  -50.8180  -51.2754 C.3       4 UNK        -0.1967 
     54 N          31.5790  -50.4094  -53.0861 N.am      4 UNK        -0.4237 
     55 C          32.4424  -49.7848  -53.8966 C.2       3 UNK         0.4908 
     56 O          32.6438  -48.5655  -53.8846 O.2       3 UNK        -0.5102 
     57 CA         33.2036  -50.6713  -54.8926 C.3       3 UNK         0.0241 
     58 CB         32.3207  -51.0130  -56.1061 C.3       3 UNK        -0.1971 
     59 N          34.3755  -49.9314  -55.3469 N.am      3 UNK        -0.4139 
     60 C          35.6383  -50.3731  -55.3924 C.2       2 UNK         0.5016 
     61 O          35.9678  -51.5421  -55.1878 O.2       2 UNK        -0.5319 
     62 CA         36.7246  -49.3209  -55.7044 C.3       2 UNK         0.0286 
     63 CB         37.1533  -49.4087  -57.1783 C.3       2 UNK        -0.1963 
     64 N          36.2801  -47.9513  -55.4123 N.am      2 UNK        -0.4790 
     65 C          36.1140  -47.4610  -54.1737 C.2       1 UNK         0.5024 
     66 O          36.5198  -48.0439  -53.1655 O.2       1 UNK        -0.4888 
     67 H67        32.1618  -46.8054  -51.6300 H         1 UNK         0.0892 
     68 H68        33.2626  -47.1313  -50.2848 H         1 UNK         0.0892 
     69 H69        32.5146  -45.5402  -50.4563 H         1 UNK         0.0892 
     70 H70        33.5927  -47.1584  -53.3543 H         1 UNK         0.3107 
     71 H71        36.0096  -45.4121  -53.6063 H         1 UNK         0.0773 
     72 H72        34.2453  -46.3535  -55.9361 H         1 UNK         0.0680 
     73 H73        35.6012  -45.2534  -55.9964 H         1 UNK         0.0680 
     74 H74        32.0793  -45.9967  -54.9255 H         1 UNK         0.0650 
     75 H75        31.9203  -45.1986  -56.4721 H         1 UNK         0.0650 
     76 H76        31.4635  -44.5790  -52.7961 H         1 UNK         0.1397 
     77 H77        27.8029  -42.4114  -53.3491 H         1 UNK         0.1363 
     78 H78        30.0384  -43.7461  -56.7537 H         1 UNK         0.1355 
     79 H79        27.2989  -41.5335  -55.5986 H         1 UNK         0.0707 
     80 H80        28.2844  -41.9993  -56.9680 H         1 UNK         0.0707 
     81 H81        24.5549  -43.1227  -57.7392 H         1 UNK         0.1034 
     82 H82        25.4241  -41.6657  -57.4347 H         1 UNK         0.1034 
     83 H83        25.1726  -42.4210  -59.8436 H         1 UNK         0.0482 
     84 H84        27.8690  -42.6893  -61.1915 H         1 UNK         0.3460 
     85 H85        28.5383  -41.0957  -60.9391 H         1 UNK         0.3460 
     86 H86        25.4968  -44.5264  -60.2438 H         1 UNK         0.2989 
     87 H87        26.3060  -46.6166  -60.2030 H         1 UNK         0.0559 
     88 H88        28.8228  -45.8946  -61.8125 H         1 UNK         0.0848 
     89 H89        27.1646  -45.6069  -62.3184 H         1 UNK         0.0848 
     90 H90        27.7479  -47.2529  -62.1458 H         1 UNK         0.0848 
     91 H91        29.1212  -47.3108  -59.8209 H         1 UNK         0.3144 
     92 H92        29.5695  -48.9800  -58.2804 H         1 UNK         0.0727 
     93 H93        30.7373  -47.9438  -56.3172 H         1 UNK         0.0790 
     94 H94        29.3762  -46.8528  -56.0703 H         1 UNK         0.0790 
     95 H95        30.3546  -46.7241  -57.5246 H         1 UNK         0.0790 
     96 H96        28.6702  -49.1620  -55.5853 H         1 UNK         0.3215 
     97 H97        26.4619  -51.9355  -55.9898 H         1 UNK         0.0863 
     98 H98        29.2554  -51.7054  -54.7500 H         1 UNK         0.0808 
     99 H99        28.7685  -52.8956  -55.9499 H         1 UNK         0.0808 
    100 H100       28.0370  -52.9141  -54.3531 H         1 UNK         0.0808 
    101 H101       27.5874  -50.0346  -53.9826 H         1 UNK         0.3118 
    102 H102       24.5256  -48.5574  -53.2961 H         1 UNK         0.0546 
    103 H103       25.5009  -50.8985  -51.5723 H         1 UNK         0.0828 
    104 H104       23.8705  -50.6885  -52.1936 H         1 UNK         0.0828 
    105 H105       24.5046  -49.5525  -51.0163 H         1 UNK         0.0828 
    106 H106       27.0182  -48.9729  -51.8124 H         1 UNK         0.3005 
    107 H107       28.7108  -46.2732  -53.2956 H         1 UNK         0.1257 
    108 H108       27.3333  -46.2590  -50.5567 H         1 UNK         0.0775 
    109 H109       27.2634  -44.9830  -51.7429 H         1 UNK         0.0775 
    110 H110       28.5381  -42.8509  -51.1326 H         1 UNK         0.0840 
    111 H111       30.2770  -42.8341  -50.9752 H         1 UNK         0.0840 
    112 H112       29.5122  -47.7207  -51.0755 H         1 UNK         0.2987 
    113 H113       31.3415  -49.1451  -51.4499 H         1 UNK         0.0785 
    114 H114       29.3648  -50.3667  -50.5053 H         1 UNK         0.0798 
    115 H115       29.3480  -51.4459  -51.8932 H         1 UNK         0.0798 
    116 H116       30.7042  -51.4675  -50.7661 H         1 UNK         0.0798 
    117 H117       31.4634  -51.4075  -53.1806 H         1 UNK         0.3079 
    118 H118       33.5071  -51.5890  -54.3838 H         1 UNK         0.0794 
    119 H119       31.4478  -51.5945  -55.8088 H         1 UNK         0.0786 
    120 H120       32.8690  -51.6070  -56.8375 H         1 UNK         0.0786 
    121 H121       31.9585  -50.1153  -56.6095 H         1 UNK         0.0786 
    122 H122       34.2151  -48.9407  -55.4611 H         1 UNK         0.3032 
    123 H123       37.5909  -49.5495  -55.0786 H         1 UNK         0.1094 
    124 H124       37.5155  -50.4093  -57.4191 H         1 UNK         0.0794 
    125 H125       36.3262  -49.1904  -57.8553 H         1 UNK         0.0794 
    126 H126       37.9625  -48.7119  -57.3988 H         1 UNK         0.0794 
    127 H127       35.9634  -47.4026  -56.1994 H         1 UNK         0.3016 
@<TRIPOS>BOND
     1    1    2 1    
     2    1   67 1    
     3    1   68 1    
     4    1   69 1    
     5    2    3 2    
     6    2    4 am   BACKBONE|DICT|INTERRES
     7    4    5 1    
     8    4   70 1    
     9    5    6 1    
    10    5   65 1    
    11    5   71 1    
    12    6    7 1    
    13    6   72 1    
    14    6   73 1    
    15    7    8 1    
    16    8    9 1    
    17    8   74 1    
    18    8   75 1    
    19    9   10 ar   
    20    9   14 ar   
    21   10   11 ar   
    22   10   76 1    
    23   11   12 ar   
    24   11   48 1    
    25   12   13 ar   
    26   12   77 1    
    27   13   14 ar   
    28   13   15 1    
    29   14   78 1    
    30   15   16 1    
    31   15   79 1    
    32   15   80 1    
    33   16   17 1    
    34   17   18 1    
    35   17   81 1    
    36   17   82 1    
    37   18   19 1    
    38   18   22 1    
    39   18   83 1    
    40   19   20 am   BACKBONE|DICT|INTERRES
    41   19   21 2    
    42   20   84 1    
    43   20   85 1    
    44   22   23 am   BACKBONE|DICT|INTERRES
    45   22   86 1    
    46   23   24 2    
    47   23   25 1    
    48   25   26 1    
    49   25   27 1    
    50   25   87 1    
    51   26   88 1    
    52   26   89 1    
    53   26   90 1    
    54   27   28 am   BACKBONE|DICT|INTERRES
    55   27   91 1    
    56   28   29 2    
    57   28   30 1    
    58   30   31 1    
    59   30   32 1    
    60   30   92 1    
    61   31   93 1    
    62   31   94 1    
    63   31   95 1    
    64   32   33 am   BACKBONE|DICT|INTERRES
    65   32   96 1    
    66   33   34 2    
    67   33   35 1    
    68   35   36 1    
    69   35   37 1    
    70   35   97 1    
    71   36   98 1    
    72   36   99 1    
    73   36  100 1    
    74   37   38 am   BACKBONE|DICT|INTERRES
    75   37  101 1    
    76   38   39 2    
    77   38   40 1    
    78   40   41 1    
    79   40   42 1    
    80   40  102 1    
    81   41  103 1    
    82   41  104 1    
    83   41  105 1    
    84   42   43 am   BACKBONE|DICT|INTERRES
    85   42  106 1    
    86   43   44 2    
    87   43   45 1    
    88   45   46 1    
    89   45   49 1    
    90   45  107 1    
    91   46   47 1    
    92   46  108 1    
    93   46  109 1    
    94   47   48 1    
    95   48  110 1    
    96   48  111 1    
    97   49   50 am   BACKBONE|DICT|INTERRES
    98   49  112 1    
    99   50   51 2    
   100   50   52 1    
   101   52   53 1    
   102   52   54 1    
   103   52  113 1    
   104   53  114 1    
   105   53  115 1    
   106   53  116 1    
   107   54   55 am   BACKBONE|DICT|INTERRES
   108   54  117 1    
   109   55   56 2    
   110   55   57 1    
   111   57   58 1    
   112   57   59 1    
   113   57  118 1    
   114   58  119 1    
   115   58  120 1    
   116   58  121 1    
   117   59   60 am   BACKBONE|DICT|INTERRES
   118   59  122 1    
   119   60   61 2    
   120   60   62 1    
   121   62   63 1    
   122   62   64 1    
   123   62  123 1    
   124   63  124 1    
   125   63  125 1    
   126   63  126 1    
   127   64   65 am   BACKBONE|DICT|INTERRES
   128   64  127 1    
   129   65   66 2    
@<TRIPOS>SUBSTRUCTURE
     1 UNK         1 GROUP             0       ****    0 ROOT    
