@<TRIPOS>MOLECULE
3R134
127   129    1
SMALL
USER_CHARGES


@<TRIPOS>ATOM
      1 CA         36.4160  -44.3934  -48.7027 C.3       0 UNK        -0.1968 
      2 C          36.4766  -45.1358  -50.0297 C.2       0 UNK         0.4852 
      3 O          37.4962  -45.7563  -50.3366 O.2       0 UNK        -0.5359 
      4 N          35.3973  -45.0695  -50.8199 N.am      1 UNK        -0.4300 
      5 CA         35.2520  -45.7542  -52.1095 C.3       1 UNK         0.0863 
      6 C6         34.0646  -45.1901  -52.9310 C.3       11 UNK        -0.0953 
      7 S7         34.2516  -43.4009  -53.2448 S.3       11 UNK        -0.2369 
      8 C8         33.6836  -43.2349  -54.9728 C.3       11 UNK         0.0226 
      9 C9         32.1772  -43.4063  -55.1732 C.ar      11 UNK        -0.0699 
     10 C10        31.2509  -43.0253  -54.1937 C.ar      11 UNK        -0.0804 
     11 C11        29.8771  -43.1791  -54.4043 C.ar      11 UNK        -0.0871 
     12 C12        29.4286  -43.7021  -55.6212 C.ar      11 UNK        -0.1008 
     13 C13        30.3382  -44.0878  -56.6099 C.ar      11 UNK        -0.0735 
     14 C14        31.7077  -43.9269  -56.3830 C.ar      11 UNK        -0.0945 
     15 C15        29.8497  -44.7455  -57.8923 C.3       11 UNK         0.0169 
     16 S16        29.5202  -43.5728  -59.2494 S.3       11 UNK        -0.2669 
     17 C17        28.0843  -42.5936  -58.6722 C.3       11 UNK        -0.0850 
     18 CA         26.6939  -43.2448  -58.9129 C.3       10 UNK         0.0855 
     19 C          26.3238  -43.3655  -60.4217 C.2       10 UNK         0.5543 
     20 N          25.9557  -44.5351  -60.9336 N.am      10 UNK        -0.7343 
     21 O          26.3526  -42.3690  -61.1398 O.2       10 UNK        -0.5027 
     22 N          26.5529  -44.4887  -58.1473 N.am      10 UNK        -0.4495 
     23 C          25.4129  -44.9803  -57.6523 C.2       10 UNK         0.4903 
     24 O          24.3274  -44.4025  -57.7229 O.2       10 UNK        -0.4860 
     25 CA         25.5232  -46.3512  -56.9546 C.3       9 UNK         0.0227 
     26 CB         24.1605  -47.0555  -56.7936 C.3       9 UNK        -0.1964 
     27 N          26.4994  -47.2635  -57.5707 N.am      9 UNK        -0.4231 
     28 C          26.5130  -47.6928  -58.8431 C.2       9 UNK         0.5014 
     29 O          25.7368  -47.2930  -59.7118 O.2       9 UNK        -0.5270 
     30 CA         27.5735  -48.7373  -59.2189 C.3       8 UNK         0.0284 
     31 CB         28.8509  -48.0506  -59.7306 C.3       8 UNK        -0.1977 
     32 N          27.9067  -49.6090  -58.0878 N.am      8 UNK        -0.4342 
     33 C          27.4638  -50.8637  -57.9378 C.2       8 UNK         0.5039 
     34 O          26.7231  -51.4321  -58.7417 O.2       8 UNK        -0.5547 
     35 CA         27.9407  -51.6290  -56.6922 C.3       7 UNK         0.0281 
     36 CB         29.4048  -52.0720  -56.8491 C.3       7 UNK        -0.1963 
     37 N          27.7869  -50.8849  -55.4404 N.am      7 UNK        -0.4444 
     38 C          26.6120  -50.6221  -54.8489 C.2       7 UNK         0.5104 
     39 O          25.5176  -50.8994  -55.3393 O.2       7 UNK        -0.5100 
     40 CA         26.6666  -49.9509  -53.4673 C.3       6 UNK         0.0396 
     41 CB         27.0642  -50.9662  -52.3826 C.3       6 UNK        -0.1801 
     42 N          27.6158  -48.8381  -53.4728 N.am      6 UNK        -0.4747 
     43 C          27.2697  -47.5497  -53.6080 C.2       6 UNK         0.5012 
     44 O          26.1029  -47.1591  -53.5841 O.2       6 UNK        -0.5003 
     45 CA         28.3993  -46.5193  -53.8428 C.3       5 UNK         0.0782 
     46 C46        28.5570  -45.5224  -52.6623 C.3       11 UNK        -0.0868 
     47 S47        27.5948  -43.9985  -52.9574 S.3       11 UNK        -0.2515 
     48 C48        28.8949  -42.7630  -53.3107 C.3       11 UNK         0.0199 
     49 N          29.6773  -47.1295  -54.2231 N.am      5 UNK        -0.4607 
     50 C          29.9126  -47.6983  -55.4124 C.2       4 UNK         0.5031 
     51 O          29.0741  -47.7617  -56.3115 O.2       4 UNK        -0.5119 
     52 CA         31.2800  -48.3714  -55.6104 C.3       4 UNK         0.0263 
     53 CB         32.2982  -47.3825  -56.1927 C.3       4 UNK        -0.1967 
     54 N          31.8285  -48.9628  -54.3875 N.am      4 UNK        -0.4237 
     55 C          31.2502  -49.9319  -53.6643 C.2       3 UNK         0.4908 
     56 O          30.1336  -50.3846  -53.9230 O.2       3 UNK        -0.5102 
     57 CA         32.0073  -50.4544  -52.4269 C.3       3 UNK         0.0241 
     58 CB         31.9438  -51.9928  -52.3284 C.3       3 UNK        -0.1971 
     59 N          33.3913  -49.9693  -52.2987 N.am      3 UNK        -0.4139 
     60 C          34.4372  -50.2143  -53.1017 C.2       2 UNK         0.5016 
     61 O          34.3726  -50.8950  -54.1262 O.2       2 UNK        -0.5319 
     62 CA         35.7665  -49.5401  -52.7066 C.3       2 UNK         0.0286 
     63 CB         36.9507  -50.0278  -53.5630 C.3       2 UNK        -0.1963 
     64 N          35.7031  -48.0751  -52.7850 N.am      2 UNK        -0.4790 
     65 C          35.1057  -47.2746  -51.8917 C.2       1 UNK         0.5024 
     66 O          34.4497  -47.6973  -50.9352 O.2       1 UNK        -0.4888 
     67 H67        35.4662  -43.8760  -48.5676 H         1 UNK         0.0892 
     68 H68        37.2148  -43.6542  -48.6493 H         1 UNK         0.0892 
     69 H69        36.5417  -45.0923  -47.8761 H         1 UNK         0.0892 
     70 H70        34.5865  -44.5528  -50.5116 H         1 UNK         0.3107 
     71 H71        36.1690  -45.5819  -52.6777 H         1 UNK         0.0773 
     72 H72        33.9896  -45.7093  -53.8874 H         1 UNK         0.0680 
     73 H73        33.1160  -45.3524  -52.4153 H         1 UNK         0.0680 
     74 H74        33.9607  -42.2419  -55.3284 H         1 UNK         0.0650 
     75 H75        34.2345  -43.9468  -55.5894 H         1 UNK         0.0650 
     76 H76        31.5981  -42.6041  -53.2608 H         1 UNK         0.1397 
     77 H77        28.3681  -43.8262  -55.7889 H         1 UNK         0.1363 
     78 H78        32.4119  -44.2236  -57.1484 H         1 UNK         0.1355 
     79 H79        28.9741  -45.3568  -57.6858 H         1 UNK         0.0707 
     80 H80        30.6065  -45.4452  -58.2470 H         1 UNK         0.0707 
     81 H81        28.1255  -41.6271  -59.1779 H         1 UNK         0.1034 
     82 H82        28.2054  -42.3510  -57.6178 H         1 UNK         0.1034 
     83 H83        25.9626  -42.5416  -58.5098 H         1 UNK         0.0482 
     84 H84        25.7139  -44.5864  -61.9102 H         1 UNK         0.3460 
     85 H85        25.8985  -45.3688  -60.3598 H         1 UNK         0.3460 
     86 H86        27.3816  -45.0583  -58.0914 H         1 UNK         0.2989 
     87 H87        25.8991  -46.1321  -55.9569 H         1 UNK         0.0559 
     88 H88        23.6996  -47.2685  -57.7587 H         1 UNK         0.0848 
     89 H89        23.4630  -46.4377  -56.2269 H         1 UNK         0.0848 
     90 H90        24.2651  -47.9977  -56.2548 H         1 UNK         0.0848 
     91 H91        27.2465  -47.5899  -56.9653 H         1 UNK         0.3144 
     92 H92        27.1651  -49.3280  -60.0417 H         1 UNK         0.0727 
     93 H93        29.5639  -48.7825  -60.1104 H         1 UNK         0.0790 
     94 H94        29.3492  -47.4790  -58.9491 H         1 UNK         0.0790 
     95 H95        28.6272  -47.3628  -60.5476 H         1 UNK         0.0790 
     96 H96        28.4814  -49.1953  -57.3587 H         1 UNK         0.3215 
     97 H97        27.3302  -52.5316  -56.6134 H         1 UNK         0.0863 
     98 H98        29.7233  -52.6914  -56.0103 H         1 UNK         0.0808 
     99 H99        30.0833  -51.2216  -56.9102 H         1 UNK         0.0808 
    100 H100       29.5388  -52.6620  -57.7568 H         1 UNK         0.0808 
    101 H101       28.6430  -50.6633  -54.9357 H         1 UNK         0.3118 
    102 H102       25.6622  -49.5939  -53.2299 H         1 UNK         0.0546 
    103 H103       26.3609  -51.7994  -52.3543 H         1 UNK         0.0828 
    104 H104       27.0618  -50.5076  -51.3939 H         1 UNK         0.0828 
    105 H105       28.0564  -51.3849  -52.5533 H         1 UNK         0.0828 
    106 H106       28.5968  -49.0885  -53.5203 H         1 UNK         0.3005 
    107 H107       28.0752  -45.9587  -54.7208 H         1 UNK         0.1257 
    108 H108       29.6027  -45.2447  -52.5204 H         1 UNK         0.0775 
    109 H109       28.2461  -45.9622  -51.7125 H         1 UNK         0.0775 
    110 H110       28.4176  -41.8284  -53.6076 H         1 UNK         0.0840 
    111 H111       29.4239  -42.5531  -52.3797 H         1 UNK         0.0840 
    112 H112       30.4098  -47.1285  -53.5294 H         1 UNK         0.2987 
    113 H113       31.1447  -49.1794  -56.3309 H         1 UNK         0.0785 
    114 H114       32.4574  -46.5326  -55.5295 H         1 UNK         0.0798 
    115 H115       31.9572  -46.9939  -57.1518 H         1 UNK         0.0798 
    116 H116       33.2629  -47.8594  -56.3673 H         1 UNK         0.0798 
    117 H117       32.7521  -48.6644  -54.1132 H         1 UNK         0.3079 
    118 H118       31.4722  -50.0509  -51.5661 H         1 UNK         0.0794 
    119 H119       32.4012  -52.4744  -53.1932 H         1 UNK         0.0786 
    120 H120       30.9111  -52.3404  -52.2751 H         1 UNK         0.0786 
    121 H121       32.4514  -52.3548  -51.4344 H         1 UNK         0.0786 
    122 H122       33.5609  -49.3276  -51.5277 H         1 UNK         0.3032 
    123 H123       35.9720  -49.8252  -51.6717 H         1 UNK         0.1094 
    124 H124       37.8932  -49.6042  -53.2154 H         1 UNK         0.0794 
    125 H125       37.0488  -51.1132  -53.5123 H         1 UNK         0.0794 
    126 H126       36.8290  -49.7604  -54.6135 H         1 UNK         0.0794 
    127 H127       36.1967  -47.6519  -53.5586 H         1 UNK         0.3016 
@<TRIPOS>BOND
     1    1    2 1    
     2    1   67 1    
     3    1   68 1    
     4    1   69 1    
     5    2    3 2    
     6    2    4 am   BACKBONE|DICT|INTERRES
     7    4    5 1    
     8    4   70 1    
     9    5    6 1    
    10    5   65 1    
    11    5   71 1    
    12    6    7 1    
    13    6   72 1    
    14    6   73 1    
    15    7    8 1    
    16    8    9 1    
    17    8   74 1    
    18    8   75 1    
    19    9   10 ar   
    20    9   14 ar   
    21   10   11 ar   
    22   10   76 1    
    23   11   12 ar   
    24   11   48 1    
    25   12   13 ar   
    26   12   77 1    
    27   13   14 ar   
    28   13   15 1    
    29   14   78 1    
    30   15   16 1    
    31   15   79 1    
    32   15   80 1    
    33   16   17 1    
    34   17   18 1    
    35   17   81 1    
    36   17   82 1    
    37   18   19 1    
    38   18   22 1    
    39   18   83 1    
    40   19   20 am   BACKBONE|DICT|INTERRES
    41   19   21 2    
    42   20   84 1    
    43   20   85 1    
    44   22   23 am   BACKBONE|DICT|INTERRES
    45   22   86 1    
    46   23   24 2    
    47   23   25 1    
    48   25   26 1    
    49   25   27 1    
    50   25   87 1    
    51   26   88 1    
    52   26   89 1    
    53   26   90 1    
    54   27   28 am   BACKBONE|DICT|INTERRES
    55   27   91 1    
    56   28   29 2    
    57   28   30 1    
    58   30   31 1    
    59   30   32 1    
    60   30   92 1    
    61   31   93 1    
    62   31   94 1    
    63   31   95 1    
    64   32   33 am   BACKBONE|DICT|INTERRES
    65   32   96 1    
    66   33   34 2    
    67   33   35 1    
    68   35   36 1    
    69   35   37 1    
    70   35   97 1    
    71   36   98 1    
    72   36   99 1    
    73   36  100 1    
    74   37   38 am   BACKBONE|DICT|INTERRES
    75   37  101 1    
    76   38   39 2    
    77   38   40 1    
    78   40   41 1    
    79   40   42 1    
    80   40  102 1    
    81   41  103 1    
    82   41  104 1    
    83   41  105 1    
    84   42   43 am   BACKBONE|DICT|INTERRES
    85   42  106 1    
    86   43   44 2    
    87   43   45 1    
    88   45   46 1    
    89   45   49 1    
    90   45  107 1    
    91   46   47 1    
    92   46  108 1    
    93   46  109 1    
    94   47   48 1    
    95   48  110 1    
    96   48  111 1    
    97   49   50 am   BACKBONE|DICT|INTERRES
    98   49  112 1    
    99   50   51 2    
   100   50   52 1    
   101   52   53 1    
   102   52   54 1    
   103   52  113 1    
   104   53  114 1    
   105   53  115 1    
   106   53  116 1    
   107   54   55 am   BACKBONE|DICT|INTERRES
   108   54  117 1    
   109   55   56 2    
   110   55   57 1    
   111   57   58 1    
   112   57   59 1    
   113   57  118 1    
   114   58  119 1    
   115   58  120 1    
   116   58  121 1    
   117   59   60 am   BACKBONE|DICT|INTERRES
   118   59  122 1    
   119   60   61 2    
   120   60   62 1    
   121   62   63 1    
   122   62   64 1    
   123   62  123 1    
   124   63  124 1    
   125   63  125 1    
   126   63  126 1    
   127   64   65 am   BACKBONE|DICT|INTERRES
   128   64  127 1    
   129   65   66 2    
@<TRIPOS>SUBSTRUCTURE
     1 UNK         1 GROUP             0       ****    0 ROOT    
