@<TRIPOS>MOLECULE
3R134
127   129    1
SMALL
USER_CHARGES


@<TRIPOS>ATOM
      1 CA         30.8716  -43.8927  -47.4844 C.3       0 UNK        -0.1968 
      2 C          31.6299  -44.6949  -48.5320 C.2       0 UNK         0.4852 
      3 O          32.7686  -45.0972  -48.2868 O.2       0 UNK        -0.5359 
      4 N          31.0114  -44.9208  -49.6980 N.am      1 UNK        -0.4300 
      5 CA         31.5621  -45.7104  -50.8043 C.3       1 UNK         0.0863 
      6 C6         30.7668  -45.4962  -52.1178 C.3       11 UNK        -0.0953 
      7 S7         30.7967  -43.7535  -52.6539 S.3       11 UNK        -0.2369 
      8 C8         32.0825  -43.7747  -53.9411 C.3       11 UNK         0.0226 
      9 C9         31.4846  -43.6242  -55.3316 C.ar      11 UNK        -0.0699 
     10 C10        31.2271  -44.7434  -56.1289 C.ar      11 UNK        -0.0804 
     11 C11        30.7237  -44.5885  -57.4266 C.ar      11 UNK        -0.0871 
     12 C12        30.4662  -43.3051  -57.9189 C.ar      11 UNK        -0.1008 
     13 C13        30.6963  -42.1823  -57.1192 C.ar      11 UNK        -0.0735 
     14 C14        31.2093  -42.3485  -55.8303 C.ar      11 UNK        -0.0945 
     15 C15        30.4054  -40.7839  -57.6398 C.3       11 UNK         0.0169 
     16 S16        28.7630  -40.2015  -57.1116 S.3       11 UNK        -0.2669 
     17 C17        27.6673  -40.9483  -58.3668 C.3       11 UNK        -0.0850 
     18 CA         26.5990  -41.8997  -57.7657 C.3       10 UNK         0.0855 
     19 C          25.5437  -42.2772  -58.8503 C.2       10 UNK         0.5543 
     20 N          25.4221  -43.5300  -59.2731 N.am      10 UNK        -0.7343 
     21 O          24.8156  -41.4055  -59.3188 O.2       10 UNK        -0.5027 
     22 N          27.2096  -43.0453  -57.0707 N.am      10 UNK        -0.4495 
     23 C          26.5551  -43.8686  -56.2442 C.2       10 UNK         0.4903 
     24 O          25.3939  -43.6966  -55.8675 O.2       10 UNK        -0.4860 
     25 CA         27.3192  -45.1213  -55.7841 C.3       9 UNK         0.0227 
     26 CB         27.5559  -45.0931  -54.2666 C.3       9 UNK        -0.1964 
     27 N          26.6145  -46.3526  -56.1564 N.am      9 UNK        -0.4231 
     28 C          26.2889  -46.7049  -57.4104 C.2       9 UNK         0.5014 
     29 O          26.6210  -46.0578  -58.4067 O.2       9 UNK        -0.5270 
     30 CA         25.4750  -48.0005  -57.5687 C.3       8 UNK         0.0284 
     31 CB         25.2518  -48.3964  -59.0406 C.3       8 UNK        -0.1977 
     32 N          26.1712  -49.0813  -56.8798 N.am      8 UNK        -0.4342 
     33 C          25.6316  -49.9456  -56.0112 C.2       8 UNK         0.5039 
     34 O          24.4281  -49.9961  -55.7538 O.2       8 UNK        -0.5547 
     35 CA         26.5967  -50.9061  -55.2817 C.3       7 UNK         0.0281 
     36 CB         26.6068  -52.2810  -55.9690 C.3       7 UNK        -0.1963 
     37 N          27.9727  -50.4031  -55.1928 N.am      7 UNK        -0.4444 
     38 C          28.3342  -49.2719  -54.5718 C.2       7 UNK         0.5104 
     39 O          27.5668  -48.6068  -53.8757 O.2       7 UNK        -0.5100 
     40 CA         29.7694  -48.7558  -54.7951 C.3       6 UNK         0.0396 
     41 CB         30.6118  -49.0195  -53.5414 C.3       6 UNK        -0.1801 
     42 N          30.4877  -49.2455  -55.9869 N.am      6 UNK        -0.4747 
     43 C          30.0422  -49.1963  -57.2560 C.2       6 UNK         0.5012 
     44 O          28.8868  -48.8924  -57.5507 O.2       6 UNK        -0.5003 
     45 CA         31.0245  -49.4903  -58.4110 C.3       5 UNK         0.0782 
     46 C46        31.1377  -48.2829  -59.3807 C.3       11 UNK        -0.0868 
     47 S47        31.9023  -46.7937  -58.6430 S.3       11 UNK        -0.2515 
     48 C48        30.4132  -45.8089  -58.2790 C.3       11 UNK         0.0199 
     49 N          32.3449  -49.9403  -57.9687 N.am      5 UNK        -0.4607 
     50 C          32.6586  -51.1933  -57.6213 C.2       4 UNK         0.5031 
     51 O          31.8446  -52.1171  -57.5918 O.2       4 UNK        -0.5119 
     52 CA         34.1274  -51.4729  -57.2407 C.3       4 UNK         0.0263 
     53 CB         35.1014  -50.3221  -57.5879 C.3       4 UNK        -0.1967 
     54 N          34.2703  -51.8501  -55.8297 N.am      4 UNK        -0.4237 
     55 C          33.8591  -51.1425  -54.7673 C.2       3 UNK         0.4908 
     56 O          33.2599  -50.0691  -54.8594 O.2       3 UNK        -0.5102 
     57 CA         34.1598  -51.7678  -53.3886 C.3       3 UNK         0.0241 
     58 CB         35.6783  -51.9181  -53.1481 C.3       3 UNK        -0.1971 
     59 N          33.5161  -51.0665  -52.2668 N.am      3 UNK        -0.4139 
     60 C          33.7588  -49.8256  -51.8177 C.2       2 UNK         0.5016 
     61 O          34.6459  -49.0772  -52.2390 O.2       2 UNK        -0.5319 
     62 CA         32.8549  -49.3349  -50.6817 C.3       2 UNK         0.0286 
     63 CB         33.4711  -49.6433  -49.3053 C.3       2 UNK        -0.1963 
     64 N          32.6710  -47.8951  -50.8373 N.am      2 UNK        -0.4790 
     65 C          31.5989  -47.2064  -50.4346 C.2       1 UNK         0.5024 
     66 O          30.6483  -47.7119  -49.8323 O.2       1 UNK        -0.4888 
     67 H67        31.4299  -42.9941  -47.2233 H         1 UNK         0.0892 
     68 H68        30.7392  -44.4870  -46.5807 H         1 UNK         0.0892 
     69 H69        29.8864  -43.5887  -47.8376 H         1 UNK         0.0892 
     70 H70        30.0740  -44.5737  -49.8396 H         1 UNK         0.3107 
     71 H71        32.5891  -45.3763  -50.9695 H         1 UNK         0.0773 
     72 H72        29.7244  -45.7916  -51.9846 H         1 UNK         0.0680 
     73 H73        31.1551  -46.1241  -52.9210 H         1 UNK         0.0680 
     74 H74        32.7718  -42.9505  -53.7517 H         1 UNK         0.0650 
     75 H75        32.6836  -44.6827  -53.8768 H         1 UNK         0.0650 
     76 H76        31.4266  -45.7351  -55.7460 H         1 UNK         0.1397 
     77 H77        30.0782  -43.1794  -58.9208 H         1 UNK         0.1363 
     78 H78        31.3957  -41.4805  -55.2124 H         1 UNK         0.1355 
     79 H79        31.1578  -40.0920  -57.2581 H         1 UNK         0.0707 
     80 H80        30.4896  -40.7459  -58.7270 H         1 UNK         0.0707 
     81 H81        27.1857  -40.1202  -58.8909 H         1 UNK         0.1034 
     82 H82        28.2556  -41.4704  -59.1228 H         1 UNK         0.1034 
     83 H83        26.0500  -41.3328  -57.0113 H         1 UNK         0.0482 
     84 H84        24.7317  -43.7423  -59.9750 H         1 UNK         0.3460 
     85 H85        25.9950  -44.2782  -58.8943 H         1 UNK         0.3460 
     86 H86        28.1706  -43.2469  -57.3061 H         1 UNK         0.2989 
     87 H87        28.2916  -45.1414  -56.2733 H         1 UNK         0.0559 
     88 H88        28.1797  -45.9262  -53.9456 H         1 UNK         0.0848 
     89 H89        28.0676  -44.1760  -53.9719 H         1 UNK         0.0848 
     90 H90        26.6197  -45.1381  -53.7091 H         1 UNK         0.0848 
     91 H91        26.3189  -46.9508  -55.3970 H         1 UNK         0.3144 
     92 H92        24.5019  -47.8192  -57.1076 H         1 UNK         0.0727 
     93 H93        24.6551  -49.3051  -59.1195 H         1 UNK         0.0790 
     94 H94        26.1974  -48.5697  -59.5563 H         1 UNK         0.0790 
     95 H95        24.7214  -47.6114  -59.5812 H         1 UNK         0.0790 
     96 H96        27.1809  -49.1006  -57.0311 H         1 UNK         0.3215 
     97 H97        26.2227  -51.0311  -54.2633 H         1 UNK         0.0863 
     98 H98        27.2186  -52.9965  -55.4193 H         1 UNK         0.0808 
     99 H99        26.9916  -52.2200  -56.9879 H         1 UNK         0.0808 
    100 H100       25.5992  -52.6955  -56.0258 H         1 UNK         0.0808 
    101 H101       28.6711  -50.8764  -55.7476 H         1 UNK         0.3118 
    102 H102       29.6861  -47.6740  -54.9159 H         1 UNK         0.0546 
    103 H103       30.0980  -48.6803  -52.6409 H         1 UNK         0.0828 
    104 H104       31.5626  -48.4895  -53.5882 H         1 UNK         0.0828 
    105 H105       30.8219  -50.0820  -53.4168 H         1 UNK         0.0828 
    106 H106       31.4531  -49.5215  -55.8338 H         1 UNK         0.3005 
    107 H107       30.5682  -50.3074  -58.9752 H         1 UNK         0.1257 
    108 H108       30.1593  -48.0271  -59.7930 H         1 UNK         0.0775 
    109 H109       31.7420  -48.5694  -60.2429 H         1 UNK         0.0775 
    110 H110       29.9417  -45.5195  -59.2196 H         1 UNK         0.0840 
    111 H111       29.6807  -46.4162  -57.7497 H         1 UNK         0.0840 
    112 H112       33.0613  -49.2295  -57.9276 H         1 UNK         0.2987 
    113 H113       34.4278  -52.3430  -57.8265 H         1 UNK         0.0785 
    114 H114       34.9015  -49.4196  -57.0088 H         1 UNK         0.0798 
    115 H115       35.0457  -50.0609  -58.6457 H         1 UNK         0.0798 
    116 H116       36.1327  -50.6136  -57.3886 H         1 UNK         0.0798 
    117 H117       34.7091  -52.7452  -55.6643 H         1 UNK         0.3079 
    118 H118       33.7221  -52.7674  -53.3990 H         1 UNK         0.0794 
    119 H119       36.2007  -50.9649  -53.2359 H         1 UNK         0.0786 
    120 H120       36.1306  -52.5991  -53.8696 H         1 UNK         0.0786 
    121 H121       35.8845  -52.3215  -52.1566 H         1 UNK         0.0786 
    122 H122       32.7577  -51.5769  -51.8365 H         1 UNK         0.3032 
    123 H123       31.8859  -49.8329  -50.7650 H         1 UNK         0.1094 
    124 H124       34.4388  -49.1555  -49.1804 H         1 UNK         0.0794 
    125 H125       32.8218  -49.3098  -48.4955 H         1 UNK         0.0794 
    126 H126       33.6255  -50.7153  -49.1761 H         1 UNK         0.0794 
    127 H127       33.4059  -47.4420  -51.3679 H         1 UNK         0.3016 
@<TRIPOS>BOND
     1    1    2 1    
     2    1   67 1    
     3    1   68 1    
     4    1   69 1    
     5    2    3 2    
     6    2    4 am   BACKBONE|DICT|INTERRES
     7    4    5 1    
     8    4   70 1    
     9    5    6 1    
    10    5   65 1    
    11    5   71 1    
    12    6    7 1    
    13    6   72 1    
    14    6   73 1    
    15    7    8 1    
    16    8    9 1    
    17    8   74 1    
    18    8   75 1    
    19    9   10 ar   
    20    9   14 ar   
    21   10   11 ar   
    22   10   76 1    
    23   11   12 ar   
    24   11   48 1    
    25   12   13 ar   
    26   12   77 1    
    27   13   14 ar   
    28   13   15 1    
    29   14   78 1    
    30   15   16 1    
    31   15   79 1    
    32   15   80 1    
    33   16   17 1    
    34   17   18 1    
    35   17   81 1    
    36   17   82 1    
    37   18   19 1    
    38   18   22 1    
    39   18   83 1    
    40   19   20 am   BACKBONE|DICT|INTERRES
    41   19   21 2    
    42   20   84 1    
    43   20   85 1    
    44   22   23 am   BACKBONE|DICT|INTERRES
    45   22   86 1    
    46   23   24 2    
    47   23   25 1    
    48   25   26 1    
    49   25   27 1    
    50   25   87 1    
    51   26   88 1    
    52   26   89 1    
    53   26   90 1    
    54   27   28 am   BACKBONE|DICT|INTERRES
    55   27   91 1    
    56   28   29 2    
    57   28   30 1    
    58   30   31 1    
    59   30   32 1    
    60   30   92 1    
    61   31   93 1    
    62   31   94 1    
    63   31   95 1    
    64   32   33 am   BACKBONE|DICT|INTERRES
    65   32   96 1    
    66   33   34 2    
    67   33   35 1    
    68   35   36 1    
    69   35   37 1    
    70   35   97 1    
    71   36   98 1    
    72   36   99 1    
    73   36  100 1    
    74   37   38 am   BACKBONE|DICT|INTERRES
    75   37  101 1    
    76   38   39 2    
    77   38   40 1    
    78   40   41 1    
    79   40   42 1    
    80   40  102 1    
    81   41  103 1    
    82   41  104 1    
    83   41  105 1    
    84   42   43 am   BACKBONE|DICT|INTERRES
    85   42  106 1    
    86   43   44 2    
    87   43   45 1    
    88   45   46 1    
    89   45   49 1    
    90   45  107 1    
    91   46   47 1    
    92   46  108 1    
    93   46  109 1    
    94   47   48 1    
    95   48  110 1    
    96   48  111 1    
    97   49   50 am   BACKBONE|DICT|INTERRES
    98   49  112 1    
    99   50   51 2    
   100   50   52 1    
   101   52   53 1    
   102   52   54 1    
   103   52  113 1    
   104   53  114 1    
   105   53  115 1    
   106   53  116 1    
   107   54   55 am   BACKBONE|DICT|INTERRES
   108   54  117 1    
   109   55   56 2    
   110   55   57 1    
   111   57   58 1    
   112   57   59 1    
   113   57  118 1    
   114   58  119 1    
   115   58  120 1    
   116   58  121 1    
   117   59   60 am   BACKBONE|DICT|INTERRES
   118   59  122 1    
   119   60   61 2    
   120   60   62 1    
   121   62   63 1    
   122   62   64 1    
   123   62  123 1    
   124   63  124 1    
   125   63  125 1    
   126   63  126 1    
   127   64   65 am   BACKBONE|DICT|INTERRES
   128   64  127 1    
   129   65   66 2    
@<TRIPOS>SUBSTRUCTURE
     1 UNK         1 GROUP             0       ****    0 ROOT    
