@<TRIPOS>MOLECULE
3R134
127   129    1
SMALL
USER_CHARGES


@<TRIPOS>ATOM
      1 CA         34.0624  -46.0559  -48.8293 C.3       0 UNK        -0.1968 
      2 C          33.8167  -46.3273  -50.3051 C.2       0 UNK         0.4852 
      3 O          33.4781  -47.4546  -50.6713 O.2       0 UNK        -0.5359 
      4 N          33.9626  -45.3031  -51.1597 N.am      1 UNK        -0.4300 
      5 CA         33.7947  -45.4044  -52.6165 C.3       1 UNK         0.0863 
      6 C6         34.2433  -44.1151  -53.3550 C.3       11 UNK        -0.0953 
      7 S7         35.1675  -44.5015  -54.8784 S.3       11 UNK        -0.2369 
      8 C8         34.6885  -43.1324  -55.9775 C.3       11 UNK         0.0226 
      9 C9         33.3598  -43.3857  -56.6757 C.ar      11 UNK        -0.0699 
     10 C10        33.2655  -44.3839  -57.6513 C.ar      11 UNK        -0.0804 
     11 C11        32.0599  -44.6133  -58.3225 C.ar      11 UNK        -0.0871 
     12 C12        30.9615  -43.7975  -58.0428 C.ar      11 UNK        -0.1008 
     13 C13        31.0386  -42.7923  -57.0738 C.ar      11 UNK        -0.0735 
     14 C14        32.2401  -42.5989  -56.3840 C.ar      11 UNK        -0.0945 
     15 C15        29.8481  -41.8719  -56.8274 C.3       11 UNK         0.0169 
     16 S16        28.2775  -42.7728  -56.6135 S.3       11 UNK        -0.2669 
     17 C17        28.2358  -43.0148  -54.8051 C.3       11 UNK        -0.0850 
     18 CA         27.0024  -43.8238  -54.3213 C.3       10 UNK         0.0855 
     19 C          25.6586  -43.0811  -54.5968 C.2       10 UNK         0.5543 
     20 N          24.7799  -43.5860  -55.4569 N.am      10 UNK        -0.7343 
     21 O          25.4084  -42.0328  -54.0071 O.2       10 UNK        -0.5027 
     22 N          27.0491  -45.2127  -54.8000 N.am      10 UNK        -0.4495 
     23 C          26.3209  -46.2185  -54.2955 C.2       10 UNK         0.4903 
     24 O          25.6401  -46.1148  -53.2737 O.2       10 UNK        -0.4860 
     25 CA         26.3433  -47.5591  -55.0597 C.3       9 UNK         0.0227 
     26 CB         24.9945  -48.3038  -54.9715 C.3       9 UNK        -0.1964 
     27 N          26.7841  -47.4515  -56.4561 N.am      9 UNK        -0.4231 
     28 C          26.1979  -46.7697  -57.4531 C.2       9 UNK         0.5014 
     29 O          25.2013  -46.0595  -57.3103 O.2       9 UNK        -0.5270 
     30 CA         26.8468  -46.8885  -58.8406 C.3       8 UNK         0.0284 
     31 CB         27.9566  -45.8388  -58.9974 C.3       8 UNK        -0.1977 
     32 N          27.4122  -48.2237  -59.0494 N.am      8 UNK        -0.4342 
     33 C          26.7896  -49.2274  -59.6827 C.2       8 UNK         0.5039 
     34 O          25.7047  -49.1122  -60.2546 O.2       8 UNK        -0.5547 
     35 CA         27.4883  -50.6013  -59.6710 C.3       7 UNK         0.0281 
     36 CB         28.4383  -50.7323  -60.8726 C.3       7 UNK        -0.1963 
     37 N          28.2320  -50.8550  -58.4340 N.am      7 UNK        -0.4444 
     38 C          27.6731  -51.0099  -57.2254 C.2       7 UNK         0.5104 
     39 O          26.4584  -51.0837  -57.0417 O.2       7 UNK        -0.5100 
     40 CA         28.6169  -51.0671  -56.0076 C.3       6 UNK         0.0396 
     41 CB         28.7523  -52.5111  -55.5004 C.3       6 UNK        -0.1801 
     42 N          29.9599  -50.5091  -56.2153 N.am      6 UNK        -0.4747 
     43 C          30.2550  -49.2560  -56.5914 C.2       6 UNK         0.5012 
     44 O          29.3977  -48.4343  -56.9246 O.2       6 UNK        -0.5003 
     45 CA         31.7512  -48.8778  -56.5761 C.3       5 UNK         0.0782 
     46 C46        32.0455  -47.4302  -57.0575 C.3       11 UNK        -0.0868 
     47 S47        32.5518  -47.3543  -58.8081 S.3       11 UNK        -0.2515 
     48 C48        31.9231  -45.7283  -59.3575 C.3       11 UNK         0.0199 
     49 N          32.3089  -49.1021  -55.2408 N.am      5 UNK        -0.4607 
     50 C          32.8360  -50.2495  -54.7992 C.2       4 UNK         0.5031 
     51 O          32.8570  -51.2861  -55.4635 O.2       4 UNK        -0.5119 
     52 CA         33.4209  -50.2436  -53.3774 C.3       4 UNK         0.0263 
     53 CB         34.7706  -49.5085  -53.3482 C.3       4 UNK        -0.1967 
     54 N          32.5172  -49.6487  -52.3911 N.am      4 UNK        -0.4237 
     55 C          31.3471  -50.1838  -52.0115 C.2       3 UNK         0.4908 
     56 O          30.9048  -51.2495  -52.4413 O.2       3 UNK        -0.5102 
     57 CA         30.5323  -49.3974  -50.9747 C.3       3 UNK         0.0241 
     58 CB         31.0499  -49.6607  -49.5507 C.3       3 UNK        -0.1971 
     59 N          30.5585  -47.9619  -51.2577 N.am      3 UNK        -0.4139 
     60 C          29.7513  -47.3657  -52.1462 C.2       2 UNK         0.5016 
     61 O          28.8607  -47.9538  -52.7559 O.2       2 UNK        -0.5319 
     62 CA         29.9680  -45.8638  -52.4079 C.3       2 UNK         0.0286 
     63 CB         29.0742  -45.0276  -51.4788 C.3       2 UNK        -0.1963 
     64 N          31.3594  -45.4316  -52.2518 N.am      2 UNK        -0.4790 
     65 C          32.3734  -45.8414  -53.0285 C.2       1 UNK         0.5024 
     66 O          32.2267  -46.5918  -53.9895 O.2       1 UNK        -0.4888 
     67 H67        34.8707  -46.6884  -48.4636 H         1 UNK         0.0892 
     68 H68        33.1658  -46.2817  -48.2528 H         1 UNK         0.0892 
     69 H69        34.3335  -45.0167  -48.6444 H         1 UNK         0.0892 
     70 H70        34.2356  -44.3972  -50.8056 H         1 UNK         0.3107 
     71 H71        34.4592  -46.2177  -52.9148 H         1 UNK         0.0773 
     72 H72        34.9174  -43.5268  -52.7305 H         1 UNK         0.0680 
     73 H73        33.4001  -43.4578  -53.5779 H         1 UNK         0.0680 
     74 H74        34.6677  -42.1994  -55.4122 H         1 UNK         0.0650 
     75 H75        35.4638  -43.0102  -56.7351 H         1 UNK         0.0650 
     76 H76        34.1290  -44.9952  -57.8755 H         1 UNK         0.1397 
     77 H77        30.0377  -43.9384  -58.5852 H         1 UNK         0.1363 
     78 H78        32.3141  -41.8147  -55.6431 H         1 UNK         0.1355 
     79 H79        29.7484  -41.2097  -57.6883 H         1 UNK         0.0707 
     80 H80        30.0200  -41.2265  -55.9646 H         1 UNK         0.0707 
     81 H81        29.1562  -43.5142  -54.4993 H         1 UNK         0.1034 
     82 H82        28.2549  -42.0368  -54.3205 H         1 UNK         0.1034 
     83 H83        27.0742  -43.8715  -53.2341 H         1 UNK         0.0482 
     84 H84        24.9837  -44.4387  -55.9652 H         1 UNK         0.3460 
     85 H85        23.9145  -43.0979  -55.6221 H         1 UNK         0.3460 
     86 H86        27.5587  -45.3674  -55.6568 H         1 UNK         0.2989 
     87 H87        27.0881  -48.1829  -54.5681 H         1 UNK         0.0559 
     88 H88        24.7386  -48.5303  -53.9359 H         1 UNK         0.0848 
     89 H89        25.0284  -49.2516  -55.5084 H         1 UNK         0.0848 
     90 H90        24.1777  -47.7121  -55.3859 H         1 UNK         0.0848 
     91 H91        27.6646  -47.9198  -56.6608 H         1 UNK         0.3144 
     92 H92        26.0784  -46.6847  -59.5894 H         1 UNK         0.0727 
     93 H93        28.3977  -45.8774  -59.9933 H         1 UNK         0.0790 
     94 H94        28.7543  -45.9837  -58.2676 H         1 UNK         0.0790 
     95 H95        27.5618  -44.8315  -58.8574 H         1 UNK         0.0790 
     96 H96        28.2845  -48.4212  -58.5699 H         1 UNK         0.3215 
     97 H97        26.7136  -51.3661  -59.7609 H         1 UNK         0.0863 
     98 H98        28.8812  -51.7272  -60.9225 H         1 UNK         0.0808 
     99 H99        29.2491  -50.0038  -60.8303 H         1 UNK         0.0808 
    100 H100       27.9041  -50.5704  -61.8099 H         1 UNK         0.0808 
    101 H101       29.2396  -50.8309  -58.4880 H         1 UNK         0.3118 
    102 H102       28.1482  -50.4755  -55.2185 H         1 UNK         0.0546 
    103 H103       27.7738  -52.9494  -55.2985 H         1 UNK         0.0828 
    104 H104       29.3205  -52.5528  -54.5706 H         1 UNK         0.0828 
    105 H105       29.2521  -53.1496  -56.2298 H         1 UNK         0.0828 
    106 H106       30.7378  -51.1035  -55.9510 H         1 UNK         0.3005 
    107 H107       32.2470  -49.5679  -57.2629 H         1 UNK         0.1257 
    108 H108       32.8881  -47.0149  -56.5022 H         1 UNK         0.0775 
    109 H109       31.2184  -46.7468  -56.8575 H         1 UNK         0.0775 
    110 H110       32.4535  -45.4349  -60.2641 H         1 UNK         0.0840 
    111 H111       30.8793  -45.8558  -59.6452 H         1 UNK         0.0840 
    112 H112       32.2964  -48.2887  -54.6282 H         1 UNK         0.2987 
    113 H113       33.5946  -51.2816  -53.0854 H         1 UNK         0.0785 
    114 H114       34.6693  -48.4649  -53.6463 H         1 UNK         0.0798 
    115 H115       35.4822  -49.9741  -54.0313 H         1 UNK         0.0798 
    116 H116       35.2138  -49.5305  -52.3523 H         1 UNK         0.0798 
    117 H117       32.8296  -48.7964  -51.9331 H         1 UNK         0.3079 
    118 H118       29.4999  -49.7516  -51.0229 H         1 UNK         0.0794 
    119 H119       32.0869  -49.3480  -49.4263 H         1 UNK         0.0786 
    120 H120       31.0010  -50.7238  -49.3112 H         1 UNK         0.0786 
    121 H121       30.4502  -49.1341  -48.8082 H         1 UNK         0.0786 
    122 H122       31.3130  -47.4295  -50.8435 H         1 UNK         0.3032 
    123 H123       29.6714  -45.6757  -53.4420 H         1 UNK         0.1094 
    124 H124       28.0298  -45.3314  -51.5659 H         1 UNK         0.0794 
    125 H125       29.1262  -43.9669  -51.7246 H         1 UNK         0.0794 
    126 H126       29.3576  -45.1448  -50.4322 H         1 UNK         0.0794 
    127 H127       31.5673  -44.8237  -51.4726 H         1 UNK         0.3016 
@<TRIPOS>BOND
     1    1    2 1    
     2    1   67 1    
     3    1   68 1    
     4    1   69 1    
     5    2    3 2    
     6    2    4 am   BACKBONE|DICT|INTERRES
     7    4    5 1    
     8    4   70 1    
     9    5    6 1    
    10    5   65 1    
    11    5   71 1    
    12    6    7 1    
    13    6   72 1    
    14    6   73 1    
    15    7    8 1    
    16    8    9 1    
    17    8   74 1    
    18    8   75 1    
    19    9   10 ar   
    20    9   14 ar   
    21   10   11 ar   
    22   10   76 1    
    23   11   12 ar   
    24   11   48 1    
    25   12   13 ar   
    26   12   77 1    
    27   13   14 ar   
    28   13   15 1    
    29   14   78 1    
    30   15   16 1    
    31   15   79 1    
    32   15   80 1    
    33   16   17 1    
    34   17   18 1    
    35   17   81 1    
    36   17   82 1    
    37   18   19 1    
    38   18   22 1    
    39   18   83 1    
    40   19   20 am   BACKBONE|DICT|INTERRES
    41   19   21 2    
    42   20   84 1    
    43   20   85 1    
    44   22   23 am   BACKBONE|DICT|INTERRES
    45   22   86 1    
    46   23   24 2    
    47   23   25 1    
    48   25   26 1    
    49   25   27 1    
    50   25   87 1    
    51   26   88 1    
    52   26   89 1    
    53   26   90 1    
    54   27   28 am   BACKBONE|DICT|INTERRES
    55   27   91 1    
    56   28   29 2    
    57   28   30 1    
    58   30   31 1    
    59   30   32 1    
    60   30   92 1    
    61   31   93 1    
    62   31   94 1    
    63   31   95 1    
    64   32   33 am   BACKBONE|DICT|INTERRES
    65   32   96 1    
    66   33   34 2    
    67   33   35 1    
    68   35   36 1    
    69   35   37 1    
    70   35   97 1    
    71   36   98 1    
    72   36   99 1    
    73   36  100 1    
    74   37   38 am   BACKBONE|DICT|INTERRES
    75   37  101 1    
    76   38   39 2    
    77   38   40 1    
    78   40   41 1    
    79   40   42 1    
    80   40  102 1    
    81   41  103 1    
    82   41  104 1    
    83   41  105 1    
    84   42   43 am   BACKBONE|DICT|INTERRES
    85   42  106 1    
    86   43   44 2    
    87   43   45 1    
    88   45   46 1    
    89   45   49 1    
    90   45  107 1    
    91   46   47 1    
    92   46  108 1    
    93   46  109 1    
    94   47   48 1    
    95   48  110 1    
    96   48  111 1    
    97   49   50 am   BACKBONE|DICT|INTERRES
    98   49  112 1    
    99   50   51 2    
   100   50   52 1    
   101   52   53 1    
   102   52   54 1    
   103   52  113 1    
   104   53  114 1    
   105   53  115 1    
   106   53  116 1    
   107   54   55 am   BACKBONE|DICT|INTERRES
   108   54  117 1    
   109   55   56 2    
   110   55   57 1    
   111   57   58 1    
   112   57   59 1    
   113   57  118 1    
   114   58  119 1    
   115   58  120 1    
   116   58  121 1    
   117   59   60 am   BACKBONE|DICT|INTERRES
   118   59  122 1    
   119   60   61 2    
   120   60   62 1    
   121   62   63 1    
   122   62   64 1    
   123   62  123 1    
   124   63  124 1    
   125   63  125 1    
   126   63  126 1    
   127   64   65 am   BACKBONE|DICT|INTERRES
   128   64  127 1    
   129   65   66 2    
@<TRIPOS>SUBSTRUCTURE
     1 UNK         1 GROUP             0       ****    0 ROOT    
