@<TRIPOS>MOLECULE
3R134
127   129    1
SMALL
USER_CHARGES


@<TRIPOS>ATOM
      1 CA         32.4740  -42.9773  -57.8579 C.3       0 UNK        -0.1968 
      2 C          32.6510  -43.7528  -56.5611 C.2       0 UNK         0.4852 
      3 O          31.9629  -44.7493  -56.3402 O.2       0 UNK        -0.5359 
      4 N          33.5766  -43.3015  -55.7058 N.am      1 UNK        -0.4300 
      5 CA         33.9852  -43.9933  -54.4824 C.3       1 UNK         0.0863 
      6 C6         34.7347  -43.0300  -53.5288 C.3       11 UNK        -0.0953 
      7 S7         34.6575  -43.5674  -51.7903 S.3       11 UNK        -0.2369 
      8 C8         33.3232  -42.5081  -51.1391 C.3       11 UNK         0.0226 
      9 C9         31.9554  -42.9233  -51.6641 C.ar      11 UNK        -0.0699 
     10 C10        31.4072  -44.1457  -51.2702 C.ar      11 UNK        -0.0804 
     11 C11        30.1617  -44.5513  -51.7528 C.ar      11 UNK        -0.0871 
     12 C12        29.4423  -43.7067  -52.5994 C.ar      11 UNK        -0.1008 
     13 C13        29.9764  -42.4799  -53.0123 C.ar      11 UNK        -0.0735 
     14 C14        31.2373  -42.0971  -52.5370 C.ar      11 UNK        -0.0945 
     15 C15        29.2125  -41.5351  -53.9434 C.3       11 UNK         0.0169 
     16 S16        27.8992  -42.3162  -54.9515 S.3       11 UNK        -0.2669 
     17 C17        28.8848  -43.2730  -56.1507 C.3       11 UNK        -0.0850 
     18 CA         28.0399  -43.6906  -57.3805 C.3       10 UNK         0.0855 
     19 C          28.9413  -44.1339  -58.5625 C.2       10 UNK         0.5543 
     20 N          29.3057  -43.2094  -59.4408 N.am      10 UNK        -0.7343 
     21 O          29.3363  -45.2916  -58.6751 O.2       10 UNK        -0.5027 
     22 N          27.0734  -44.7438  -57.0428 N.am      10 UNK        -0.4495 
     23 C          25.9051  -44.9200  -57.6692 C.2       10 UNK         0.4903 
     24 O          25.4378  -44.1345  -58.4964 O.2       10 UNK        -0.4860 
     25 CA         25.1569  -46.2168  -57.3179 C.3       9 UNK         0.0227 
     26 CB         23.7527  -46.3105  -57.9518 C.3       9 UNK        -0.1964 
     27 N          25.9680  -47.3949  -57.6398 N.am      9 UNK        -0.4231 
     28 C          26.4029  -47.8005  -58.8439 C.2       9 UNK         0.5014 
     29 O          26.1192  -47.2503  -59.9088 O.2       9 UNK        -0.5270 
     30 CA         27.3098  -49.0462  -58.8712 C.3       8 UNK         0.0284 
     31 CB         28.7892  -48.6343  -58.9270 C.3       8 UNK        -0.1977 
     32 N          27.1092  -49.9369  -57.7262 N.am      8 UNK        -0.4342 
     33 C          26.0101  -50.6716  -57.5053 C.2       8 UNK         0.5039 
     34 O          25.0610  -50.7445  -58.2865 O.2       8 UNK        -0.5547 
     35 CA         25.9504  -51.4253  -56.1686 C.3       7 UNK         0.0281 
     36 CB         26.7332  -52.7463  -56.2457 C.3       7 UNK        -0.1963 
     37 N          26.4675  -50.6040  -55.0715 N.am      7 UNK        -0.4444 
     38 C          25.7790  -49.6216  -54.4730 C.2       7 UNK         0.5104 
     39 O          24.6114  -49.3404  -54.7413 O.2       7 UNK        -0.5100 
     40 CA         26.5203  -48.8024  -53.4028 C.3       6 UNK         0.0396 
     41 CB         26.3278  -49.4290  -52.0133 C.3       6 UNK        -0.1801 
     42 N          27.9514  -48.6684  -53.6790 N.am      6 UNK        -0.4747 
     43 C          28.4728  -47.8776  -54.6275 C.2       6 UNK         0.5012 
     44 O          27.7993  -47.1590  -55.3672 O.2       6 UNK        -0.5003 
     45 CA         30.0065  -47.9083  -54.7900 C.3       5 UNK         0.0782 
     46 C46        30.6760  -46.8450  -53.8928 C.3       11 UNK        -0.0868 
     47 S47        30.6516  -47.2483  -52.1030 S.3       11 UNK        -0.2515 
     48 C48        29.6126  -45.9258  -51.4057 C.3       11 UNK         0.0199 
     49 N          30.6188  -49.2323  -54.6062 N.am      5 UNK        -0.4607 
     50 C          30.2952  -50.3470  -55.2754 C.2       4 UNK         0.5031 
     51 O          29.3703  -50.3989  -56.0867 O.2       4 UNK        -0.5119 
     52 CA         31.1305  -51.6099  -54.9974 C.3       4 UNK         0.0263 
     53 CB         31.2191  -52.5220  -56.2356 C.3       4 UNK        -0.1967 
     54 N          32.4889  -51.2746  -54.5598 N.am      4 UNK        -0.4237 
     55 C          33.0288  -51.5931  -53.3752 C.2       3 UNK         0.4908 
     56 O          32.4315  -52.2108  -52.4931 O.2       3 UNK        -0.5102 
     57 CA         34.4878  -51.1579  -53.1249 C.3       3 UNK         0.0241 
     58 CB         35.4450  -52.3374  -53.3639 C.3       3 UNK        -0.1971 
     59 N          34.9233  -50.0128  -53.9351 N.am      3 UNK        -0.4139 
     60 C          34.4447  -48.7692  -53.7999 C.2       2 UNK         0.5016 
     61 O          33.5947  -48.4565  -52.9651 O.2       2 UNK        -0.5319 
     62 CA         34.9639  -47.7141  -54.7848 C.3       2 UNK         0.0286 
     63 CB         34.5222  -48.0525  -56.2259 C.3       2 UNK        -0.1963 
     64 N          34.4276  -46.4104  -54.3972 N.am      2 UNK        -0.4790 
     65 C          34.8306  -45.2261  -54.8665 C.2       1 UNK         0.5024 
     66 O          35.8077  -45.0822  -55.6060 O.2       1 UNK        -0.4888 
     67 H67        31.6652  -42.2544  -57.7646 H         1 UNK         0.0892 
     68 H68        33.3823  -42.4401  -58.1304 H         1 UNK         0.0892 
     69 H69        32.2315  -43.6584  -58.6733 H         1 UNK         0.0892 
     70 H70        34.1316  -42.4965  -55.9577 H         1 UNK         0.3107 
     71 H71        33.0723  -44.3319  -53.9860 H         1 UNK         0.0773 
     72 H72        35.7809  -42.9128  -53.8182 H         1 UNK         0.0680 
     73 H73        34.3032  -42.0296  -53.5892 H         1 UNK         0.0680 
     74 H74        33.3206  -42.5806  -50.0506 H         1 UNK         0.0650 
     75 H75        33.5355  -41.4639  -51.3736 H         1 UNK         0.0650 
     76 H76        31.9668  -44.7991  -50.6145 H         1 UNK         0.1397 
     77 H77        28.4725  -44.0270  -52.9518 H         1 UNK         0.1363 
     78 H78        31.6592  -41.1497  -52.8439 H         1 UNK         0.1355 
     79 H79        28.7524  -40.7583  -53.3315 H         1 UNK         0.0707 
     80 H80        29.9101  -41.0266  -54.6109 H         1 UNK         0.0707 
     81 H81        29.7224  -42.6467  -56.4586 H         1 UNK         0.1034 
     82 H82        29.3207  -44.1448  -55.6593 H         1 UNK         0.1034 
     83 H83        27.4865  -42.8086  -57.7108 H         1 UNK         0.0482 
     84 H84        29.8923  -43.4775  -60.2149 H         1 UNK         0.3460 
     85 H85        28.9822  -42.2579  -59.3639 H         1 UNK         0.3460 
     86 H86        27.4034  -45.4765  -56.4226 H         1 UNK         0.2989 
     87 H87        25.0279  -46.2214  -56.2343 H         1 UNK         0.0559 
     88 H88        23.1256  -45.4789  -57.6286 H         1 UNK         0.0848 
     89 H89        23.2480  -47.2313  -57.6591 H         1 UNK         0.0848 
     90 H90        23.7912  -46.2813  -59.0411 H         1 UNK         0.0848 
     91 H91        26.3447  -47.8796  -56.8351 H         1 UNK         0.3144 
     92 H92        27.0747  -49.6061  -59.7788 H         1 UNK         0.0727 
     93 H93        29.0825  -48.0726  -58.0393 H         1 UNK         0.0790 
     94 H94        28.9852  -47.9980  -59.7912 H         1 UNK         0.0790 
     95 H95        29.4432  -49.5029  -59.0057 H         1 UNK         0.0790 
     96 H96        27.8799  -50.0074  -57.0627 H         1 UNK         0.3215 
     97 H97        24.9040  -51.6644  -55.9645 H         1 UNK         0.0863 
     98 H98        26.6610  -53.3053  -55.3128 H         1 UNK         0.0808 
     99 H99        27.7896  -52.5825  -56.4582 H         1 UNK         0.0808 
    100 H100       26.3385  -53.3849  -57.0371 H         1 UNK         0.0808 
    101 H101       27.4414  -50.7250  -54.8304 H         1 UNK         0.3118 
    102 H102       26.0804  -47.8026  -53.3868 H         1 UNK         0.0546 
    103 H103       26.7577  -50.4297  -51.9558 H         1 UNK         0.0828 
    104 H104       25.2682  -49.5152  -51.7684 H         1 UNK         0.0828 
    105 H105       26.7894  -48.8194  -51.2362 H         1 UNK         0.0828 
    106 H106       28.5876  -49.2013  -53.1028 H         1 UNK         0.3005 
    107 H107       30.2008  -47.6236  -55.8268 H         1 UNK         0.1257 
    108 H108       31.7177  -46.7373  -54.1902 H         1 UNK         0.0775 
    109 H109       30.2336  -45.8672  -54.0812 H         1 UNK         0.0775 
    110 H110       28.5910  -46.0476  -51.7699 H         1 UNK         0.0840 
    111 H111       29.5703  -46.0371  -50.3214 H         1 UNK         0.0840 
    112 H112       31.3677  -49.2728  -53.9272 H         1 UNK         0.2987 
    113 H113       30.6023  -52.1574  -54.2144 H         1 UNK         0.0785 
    114 H114       30.2313  -52.8592  -56.5510 H         1 UNK         0.0798 
    115 H115       31.8097  -53.4144  -56.0279 H         1 UNK         0.0798 
    116 H116       31.6743  -52.0079  -57.0830 H         1 UNK         0.0798 
    117 H117       33.0545  -50.7570  -55.2171 H         1 UNK         0.3079 
    118 H118       34.5602  -50.8690  -52.0739 H         1 UNK         0.0794 
    119 H119       36.4710  -52.0760  -53.1037 H         1 UNK         0.0786 
    120 H120       35.4336  -52.6634  -54.4048 H         1 UNK         0.0786 
    121 H121       35.1674  -53.1963  -52.7510 H         1 UNK         0.0786 
    122 H122       35.6250  -50.1958  -54.6387 H         1 UNK         0.3032 
    123 H123       36.0540  -47.6875  -54.7206 H         1 UNK         0.1094 
    124 H124       33.4351  -48.0798  -56.3154 H         1 UNK         0.0794 
    125 H125       34.8926  -47.3189  -56.9420 H         1 UNK         0.0794 
    126 H126       34.9038  -49.0221  -56.5471 H         1 UNK         0.0794 
    127 H127       33.6699  -46.4678  -53.7259 H         1 UNK         0.3016 
@<TRIPOS>BOND
     1    1    2 1    
     2    1   67 1    
     3    1   68 1    
     4    1   69 1    
     5    2    3 2    
     6    2    4 am   BACKBONE|DICT|INTERRES
     7    4    5 1    
     8    4   70 1    
     9    5    6 1    
    10    5   65 1    
    11    5   71 1    
    12    6    7 1    
    13    6   72 1    
    14    6   73 1    
    15    7    8 1    
    16    8    9 1    
    17    8   74 1    
    18    8   75 1    
    19    9   10 ar   
    20    9   14 ar   
    21   10   11 ar   
    22   10   76 1    
    23   11   12 ar   
    24   11   48 1    
    25   12   13 ar   
    26   12   77 1    
    27   13   14 ar   
    28   13   15 1    
    29   14   78 1    
    30   15   16 1    
    31   15   79 1    
    32   15   80 1    
    33   16   17 1    
    34   17   18 1    
    35   17   81 1    
    36   17   82 1    
    37   18   19 1    
    38   18   22 1    
    39   18   83 1    
    40   19   20 am   BACKBONE|DICT|INTERRES
    41   19   21 2    
    42   20   84 1    
    43   20   85 1    
    44   22   23 am   BACKBONE|DICT|INTERRES
    45   22   86 1    
    46   23   24 2    
    47   23   25 1    
    48   25   26 1    
    49   25   27 1    
    50   25   87 1    
    51   26   88 1    
    52   26   89 1    
    53   26   90 1    
    54   27   28 am   BACKBONE|DICT|INTERRES
    55   27   91 1    
    56   28   29 2    
    57   28   30 1    
    58   30   31 1    
    59   30   32 1    
    60   30   92 1    
    61   31   93 1    
    62   31   94 1    
    63   31   95 1    
    64   32   33 am   BACKBONE|DICT|INTERRES
    65   32   96 1    
    66   33   34 2    
    67   33   35 1    
    68   35   36 1    
    69   35   37 1    
    70   35   97 1    
    71   36   98 1    
    72   36   99 1    
    73   36  100 1    
    74   37   38 am   BACKBONE|DICT|INTERRES
    75   37  101 1    
    76   38   39 2    
    77   38   40 1    
    78   40   41 1    
    79   40   42 1    
    80   40  102 1    
    81   41  103 1    
    82   41  104 1    
    83   41  105 1    
    84   42   43 am   BACKBONE|DICT|INTERRES
    85   42  106 1    
    86   43   44 2    
    87   43   45 1    
    88   45   46 1    
    89   45   49 1    
    90   45  107 1    
    91   46   47 1    
    92   46  108 1    
    93   46  109 1    
    94   47   48 1    
    95   48  110 1    
    96   48  111 1    
    97   49   50 am   BACKBONE|DICT|INTERRES
    98   49  112 1    
    99   50   51 2    
   100   50   52 1    
   101   52   53 1    
   102   52   54 1    
   103   52  113 1    
   104   53  114 1    
   105   53  115 1    
   106   53  116 1    
   107   54   55 am   BACKBONE|DICT|INTERRES
   108   54  117 1    
   109   55   56 2    
   110   55   57 1    
   111   57   58 1    
   112   57   59 1    
   113   57  118 1    
   114   58  119 1    
   115   58  120 1    
   116   58  121 1    
   117   59   60 am   BACKBONE|DICT|INTERRES
   118   59  122 1    
   119   60   61 2    
   120   60   62 1    
   121   62   63 1    
   122   62   64 1    
   123   62  123 1    
   124   63  124 1    
   125   63  125 1    
   126   63  126 1    
   127   64   65 am   BACKBONE|DICT|INTERRES
   128   64  127 1    
   129   65   66 2    
@<TRIPOS>SUBSTRUCTURE
     1 UNK         1 GROUP             0       ****    0 ROOT    
