@<TRIPOS>MOLECULE
3R134
127   129    1
SMALL
USER_CHARGES


@<TRIPOS>ATOM
      1 CA         36.8187  -43.7300  -51.5801 C.3       0 UNK        -0.1968 
      2 C          35.7751  -44.6920  -52.1274 C.2       0 UNK         0.4852 
      3 O          34.6349  -44.6814  -51.6607 O.2       0 UNK        -0.5359 
      4 N          36.1605  -45.5259  -53.1049 N.am      1 UNK        -0.4300 
      5 CA         35.3530  -46.5218  -53.8318 C.3       1 UNK         0.0863 
      6 C6         34.1350  -45.9208  -54.5817 C.3       11 UNK        -0.0953 
      7 S7         34.6228  -44.7679  -55.9095 S.3       11 UNK        -0.2369 
      8 C8         34.1220  -43.1513  -55.2382 C.3       11 UNK         0.0226 
      9 C9         32.6092  -43.0085  -55.1541 C.ar      11 UNK        -0.0699 
     10 C10        31.9521  -43.2364  -53.9427 C.ar      11 UNK        -0.0804 
     11 C11        30.5641  -43.1187  -53.8566 C.ar      11 UNK        -0.0871 
     12 C12        29.8349  -42.7256  -54.9816 C.ar      11 UNK        -0.1008 
     13 C13        30.4773  -42.4908  -56.2015 C.ar      11 UNK        -0.0735 
     14 C14        31.8670  -42.6392  -56.2809 C.ar      11 UNK        -0.0945 
     15 C15        29.6817  -42.0550  -57.4268 C.3       11 UNK         0.0169 
     16 S16        28.4233  -43.2798  -57.9190 S.3       11 UNK        -0.2669 
     17 C17        26.8930  -42.4977  -57.2888 C.3       11 UNK        -0.0850 
     18 CA         25.5915  -43.2175  -57.7295 C.3       10 UNK         0.0855 
     19 C          25.2883  -43.0195  -59.2461 C.2       10 UNK         0.5543 
     20 N          25.1981  -44.0655  -60.0600 N.am      10 UNK        -0.7343 
     21 O          25.1157  -41.8865  -59.6895 O.2       10 UNK        -0.5027 
     22 N          25.5719  -44.6102  -57.2630 N.am      10 UNK        -0.4495 
     23 C          24.4769  -45.3696  -57.1340 C.2       10 UNK         0.4903 
     24 O          23.3291  -44.9425  -57.2687 O.2       10 UNK        -0.4860 
     25 CA         24.7141  -46.8594  -56.8116 C.3       9 UNK         0.0227 
     26 CB         23.5283  -47.7578  -57.2204 C.3       9 UNK        -0.1964 
     27 N          25.9706  -47.3790  -57.3674 N.am      9 UNK        -0.4231 
     28 C          26.3420  -47.4079  -58.6574 C.2       9 UNK         0.5014 
     29 O          25.6529  -46.9775  -59.5834 O.2       9 UNK        -0.5270 
     30 CA         27.7325  -47.9843  -58.9674 C.3       8 UNK         0.0284 
     31 CB         28.7956  -46.8771  -58.8891 C.3       8 UNK        -0.1977 
     32 N          28.1036  -49.0909  -58.0812 N.am      8 UNK        -0.4342 
     33 C          27.5513  -50.3127  -58.1347 C.2       8 UNK         0.5039 
     34 O          26.7089  -50.6478  -58.9688 O.2       8 UNK        -0.5547 
     35 CA         28.0070  -51.3362  -57.0802 C.3       7 UNK         0.0281 
     36 CB         29.3661  -51.9411  -57.4648 C.3       7 UNK        -0.1963 
     37 N          28.0677  -50.7690  -55.7301 N.am      7 UNK        -0.4444 
     38 C          26.9926  -50.3659  -55.0358 C.2       7 UNK         0.5104 
     39 O          25.8338  -50.4763  -55.4360 O.2       7 UNK        -0.5100 
     40 CA         27.2499  -49.7047  -53.6713 C.3       6 UNK         0.0396 
     41 CB         27.3680  -50.7627  -52.5629 C.3       6 UNK        -0.1801 
     42 N          28.4381  -48.8496  -53.6673 N.am      6 UNK        -0.4747 
     43 C          28.5640  -47.7175  -54.3772 C.2       6 UNK         0.5012 
     44 O          27.6887  -47.2727  -55.1199 O.2       6 UNK        -0.5003 
     45 CA         29.9261  -46.9998  -54.2817 C.3       5 UNK         0.0782 
     46 C46        30.0831  -46.2454  -52.9330 C.3       11 UNK        -0.0868 
     47 S47        28.8382  -44.9301  -52.6685 S.3       11 UNK        -0.2515 
     48 C48        29.8518  -43.4225  -52.5489 C.3       11 UNK         0.0199 
     49 N          31.0148  -47.9621  -54.5104 N.am      5 UNK        -0.4607 
     50 C          31.2036  -48.6223  -55.6676 C.2       4 UNK         0.5031 
     51 O          30.5489  -48.4009  -56.6846 O.2       4 UNK        -0.5119 
     52 CA         32.2286  -49.7726  -55.7031 C.3       4 UNK         0.0263 
     53 CB         33.5204  -49.3815  -56.4380 C.3       4 UNK        -0.1967 
     54 N          32.5281  -50.3329  -54.3847 N.am      4 UNK        -0.4237 
     55 C          31.6463  -51.0588  -53.6784 C.2       3 UNK         0.4908 
     56 O          30.5264  -51.3546  -54.0984 O.2       3 UNK        -0.5102 
     57 CA         32.0480  -51.4915  -52.2554 C.3       3 UNK         0.0241 
     58 CB         32.6139  -52.9200  -52.2710 C.3       3 UNK        -0.1971 
     59 N          33.0081  -50.5950  -51.6018 N.am      3 UNK        -0.4139 
     60 C          32.8062  -49.2909  -51.3665 C.2       2 UNK         0.5016 
     61 O          31.7666  -48.7026  -51.6639 O.2       2 UNK        -0.5319 
     62 CA         33.9712  -48.4806  -50.7676 C.3       2 UNK         0.0286 
     63 CB         35.1318  -49.3424  -50.2197 C.3       2 UNK        -0.1963 
     64 N          34.4744  -47.4973  -51.7348 N.am      2 UNK        -0.4790 
     65 C          34.9274  -47.7343  -52.9743 C.2       1 UNK         0.5024 
     66 O          35.0152  -48.8646  -53.4575 O.2       1 UNK        -0.4888 
     67 H67        36.9724  -43.9099  -50.5159 H         1 UNK         0.0892 
     68 H68        37.7792  -43.8365  -52.0856 H         1 UNK         0.0892 
     69 H69        36.4809  -42.7012  -51.7072 H         1 UNK         0.0892 
     70 H70        37.1244  -45.4847  -53.4063 H         1 UNK         0.3107 
     71 H71        36.0255  -46.9292  -54.5889 H         1 UNK         0.0773 
     72 H72        33.5433  -46.7006  -55.0574 H         1 UNK         0.0680 
     73 H73        33.4546  -45.4422  -53.8819 H         1 UNK         0.0680 
     74 H74        34.5257  -42.3667  -55.8797 H         1 UNK         0.0650 
     75 H75        34.5782  -43.0052  -54.2586 H         1 UNK         0.0650 
     76 H76        32.5222  -43.5201  -53.0679 H         1 UNK         0.1397 
     77 H77        28.7628  -42.6218  -54.9058 H         1 UNK         0.1363 
     78 H78        32.3768  -42.4617  -57.2181 H         1 UNK         0.1355 
     79 H79        30.3487  -41.9001  -58.2763 H         1 UNK         0.0707 
     80 H80        29.2179  -41.0879  -57.2290 H         1 UNK         0.0707 
     81 H81        26.9335  -42.4741  -56.2000 H         1 UNK         0.1034 
     82 H82        26.8692  -41.4522  -57.6025 H         1 UNK         0.1034 
     83 H83        24.7732  -42.7101  -57.2147 H         1 UNK         0.0482 
     84 H84        24.9953  -43.9111  -61.0345 H         1 UNK         0.3460 
     85 H85        25.3333  -45.0120  -59.7207 H         1 UNK         0.3460 
     86 H86        26.4763  -45.0433  -57.1441 H         1 UNK         0.2989 
     87 H87        24.8178  -46.9220  -55.7274 H         1 UNK         0.0559 
     88 H88        23.3297  -47.7027  -58.2912 H         1 UNK         0.0848 
     89 H89        22.6146  -47.4621  -56.7035 H         1 UNK         0.0848 
     90 H90        23.7190  -48.8012  -56.9677 H         1 UNK         0.0848 
     91 H91        26.6546  -47.6620  -56.6690 H         1 UNK         0.3144 
     92 H92        27.7127  -48.3615  -59.9921 H         1 UNK         0.0727 
     93 H93        28.8836  -46.4714  -57.8800 H         1 UNK         0.0790 
     94 H94        28.5479  -46.0483  -59.5538 H         1 UNK         0.0790 
     95 H95        29.7770  -47.2478  -59.1853 H         1 UNK         0.0790 
     96 H96        28.8428  -48.9043  -57.4072 H         1 UNK         0.3215 
     97 H97        27.2735  -52.1455  -57.0603 H         1 UNK         0.0863 
     98 H98        29.7495  -52.6015  -56.6865 H         1 UNK         0.0808 
     99 H99        30.1108  -51.1698  -57.6565 H         1 UNK         0.0808 
    100 H100       29.2780  -52.5312  -58.3779 H         1 UNK         0.0808 
    101 H101       28.9773  -50.7160  -55.2827 H         1 UNK         0.3118 
    102 H102       26.3884  -49.0730  -53.4438 H         1 UNK         0.0546 
    103 H103       26.4742  -51.3872  -52.5258 H         1 UNK         0.0828 
    104 H104       27.4790  -50.3001  -51.5821 H         1 UNK         0.0828 
    105 H105       28.2197  -51.4249  -52.7205 H         1 UNK         0.0828 
    106 H106       29.2241  -49.1619  -53.1140 H         1 UNK         0.3005 
    107 H107       29.9649  -46.2620  -55.0875 H         1 UNK         0.1257 
    108 H108       31.0838  -45.8176  -52.8630 H         1 UNK         0.0775 
    109 H109       29.9993  -46.9365  -52.0939 H         1 UNK         0.0775 
    110 H110       29.2073  -42.5820  -52.2877 H         1 UNK         0.0840 
    111 H111       30.5622  -43.5303  -51.7275 H         1 UNK         0.0840 
    112 H112       31.5397  -48.2398  -53.6886 H         1 UNK         0.2987 
    113 H113       31.7746  -50.5711  -56.2897 H         1 UNK         0.0785 
    114 H114       34.1182  -48.6633  -55.8837 H         1 UNK         0.0798 
    115 H115       33.2978  -48.9383  -57.4098 H         1 UNK         0.0798 
    116 H116       34.1455  -50.2558  -56.6198 H         1 UNK         0.0798 
    117 H117       33.4237  -50.0913  -53.9722 H         1 UNK         0.3079 
    118 H118       31.1379  -51.4900  -51.6519 H         1 UNK         0.0794 
    119 H119       33.5449  -52.9797  -52.8363 H         1 UNK         0.0786 
    120 H120       31.9084  -53.6141  -52.7304 H         1 UNK         0.0786 
    121 H121       32.8087  -53.2816  -51.2611 H         1 UNK         0.0786 
    122 H122       33.9053  -50.9886  -51.3577 H         1 UNK         0.3032 
    123 H123       33.5501  -47.9171  -49.9333 H         1 UNK         0.1094 
    124 H124       35.8822  -48.7167  -49.7362 H         1 UNK         0.0794 
    125 H125       34.7783  -50.0494  -49.4679 H         1 UNK         0.0794 
    126 H126       35.6379  -49.9096  -51.0017 H         1 UNK         0.0794 
    127 H127       34.4035  -46.5181  -51.4627 H         1 UNK         0.3016 
@<TRIPOS>BOND
     1    1    2 1    
     2    1   67 1    
     3    1   68 1    
     4    1   69 1    
     5    2    3 2    
     6    2    4 am   BACKBONE|DICT|INTERRES
     7    4    5 1    
     8    4   70 1    
     9    5    6 1    
    10    5   65 1    
    11    5   71 1    
    12    6    7 1    
    13    6   72 1    
    14    6   73 1    
    15    7    8 1    
    16    8    9 1    
    17    8   74 1    
    18    8   75 1    
    19    9   10 ar   
    20    9   14 ar   
    21   10   11 ar   
    22   10   76 1    
    23   11   12 ar   
    24   11   48 1    
    25   12   13 ar   
    26   12   77 1    
    27   13   14 ar   
    28   13   15 1    
    29   14   78 1    
    30   15   16 1    
    31   15   79 1    
    32   15   80 1    
    33   16   17 1    
    34   17   18 1    
    35   17   81 1    
    36   17   82 1    
    37   18   19 1    
    38   18   22 1    
    39   18   83 1    
    40   19   20 am   BACKBONE|DICT|INTERRES
    41   19   21 2    
    42   20   84 1    
    43   20   85 1    
    44   22   23 am   BACKBONE|DICT|INTERRES
    45   22   86 1    
    46   23   24 2    
    47   23   25 1    
    48   25   26 1    
    49   25   27 1    
    50   25   87 1    
    51   26   88 1    
    52   26   89 1    
    53   26   90 1    
    54   27   28 am   BACKBONE|DICT|INTERRES
    55   27   91 1    
    56   28   29 2    
    57   28   30 1    
    58   30   31 1    
    59   30   32 1    
    60   30   92 1    
    61   31   93 1    
    62   31   94 1    
    63   31   95 1    
    64   32   33 am   BACKBONE|DICT|INTERRES
    65   32   96 1    
    66   33   34 2    
    67   33   35 1    
    68   35   36 1    
    69   35   37 1    
    70   35   97 1    
    71   36   98 1    
    72   36   99 1    
    73   36  100 1    
    74   37   38 am   BACKBONE|DICT|INTERRES
    75   37  101 1    
    76   38   39 2    
    77   38   40 1    
    78   40   41 1    
    79   40   42 1    
    80   40  102 1    
    81   41  103 1    
    82   41  104 1    
    83   41  105 1    
    84   42   43 am   BACKBONE|DICT|INTERRES
    85   42  106 1    
    86   43   44 2    
    87   43   45 1    
    88   45   46 1    
    89   45   49 1    
    90   45  107 1    
    91   46   47 1    
    92   46  108 1    
    93   46  109 1    
    94   47   48 1    
    95   48  110 1    
    96   48  111 1    
    97   49   50 am   BACKBONE|DICT|INTERRES
    98   49  112 1    
    99   50   51 2    
   100   50   52 1    
   101   52   53 1    
   102   52   54 1    
   103   52  113 1    
   104   53  114 1    
   105   53  115 1    
   106   53  116 1    
   107   54   55 am   BACKBONE|DICT|INTERRES
   108   54  117 1    
   109   55   56 2    
   110   55   57 1    
   111   57   58 1    
   112   57   59 1    
   113   57  118 1    
   114   58  119 1    
   115   58  120 1    
   116   58  121 1    
   117   59   60 am   BACKBONE|DICT|INTERRES
   118   59  122 1    
   119   60   61 2    
   120   60   62 1    
   121   62   63 1    
   122   62   64 1    
   123   62  123 1    
   124   63  124 1    
   125   63  125 1    
   126   63  126 1    
   127   64   65 am   BACKBONE|DICT|INTERRES
   128   64  127 1    
   129   65   66 2    
@<TRIPOS>SUBSTRUCTURE
     1 UNK         1 GROUP             0       ****    0 ROOT    
