@<TRIPOS>MOLECULE
3R134
127   129    1
SMALL
USER_CHARGES


@<TRIPOS>ATOM
      1 CA         37.2304  -46.8620  -52.8143 C.3       0 UNK        -0.1968 
      2 C          35.7393  -46.5639  -52.8410 C.2       0 UNK         0.4852 
      3 O          34.9350  -47.4937  -52.8872 O.2       0 UNK        -0.5359 
      4 N          35.3688  -45.2760  -52.7920 N.am      1 UNK        -0.4300 
      5 CA         33.9964  -44.7492  -52.8761 C.3       1 UNK         0.0863 
      6 C6         33.9745  -43.2041  -52.7364 C.3       11 UNK        -0.0953 
      7 S7         35.0373  -42.3746  -53.9725 S.3       11 UNK        -0.2369 
      8 C8         33.8248  -41.6565  -55.1303 C.3       11 UNK         0.0226 
      9 C9         32.8333  -42.6924  -55.6390 C.ar      11 UNK        -0.0699 
     10 C10        33.2704  -43.7647  -56.4219 C.ar      11 UNK        -0.0804 
     11 C11        32.3760  -44.7646  -56.8133 C.ar      11 UNK        -0.0871 
     12 C12        31.0292  -44.6693  -56.4489 C.ar      11 UNK        -0.1008 
     13 C13        30.5792  -43.5878  -55.6854 C.ar      11 UNK        -0.0735 
     14 C14        31.4842  -42.6018  -55.2859 C.ar      11 UNK        -0.0945 
     15 C15        29.1238  -43.4965  -55.2617 C.3       11 UNK         0.0169 
     16 S16        28.8700  -44.3196  -53.6613 S.3       11 UNK        -0.2669 
     17 C17        27.0714  -44.1202  -53.4270 C.3       11 UNK        -0.0850 
     18 CA         26.2983  -45.4356  -53.7282 C.3       10 UNK         0.0855 
     19 C          24.8231  -45.4198  -53.2183 C.2       10 UNK         0.5543 
     20 N          23.8967  -46.1275  -53.8563 N.am      10 UNK        -0.7343 
     21 O          24.5157  -44.7866  -52.2113 O.2       10 UNK        -0.5027 
     22 N          26.4510  -45.8810  -55.1235 N.am      10 UNK        -0.4495 
     23 C          25.9638  -45.2685  -56.2127 C.2       10 UNK         0.4903 
     24 O          25.4023  -44.1731  -56.1975 O.2       10 UNK        -0.4860 
     25 CA         26.1092  -46.0133  -57.5526 C.3       9 UNK         0.0227 
     26 CB         27.2288  -45.3877  -58.3980 C.3       9 UNK        -0.1964 
     27 N          26.3420  -47.4566  -57.4061 N.am      9 UNK        -0.4231 
     28 C          25.4475  -48.3159  -56.8904 C.2       9 UNK         0.5014 
     29 O          24.3356  -47.9721  -56.4812 O.2       9 UNK        -0.5270 
     30 CA         25.8860  -49.7869  -56.7716 C.3       8 UNK         0.0284 
     31 CB         24.7321  -50.7373  -56.3822 C.3       8 UNK        -0.1977 
     32 N          26.5954  -50.2711  -57.9616 N.am      8 UNK        -0.4342 
     33 C          26.1013  -50.3942  -59.2033 C.2       8 UNK         0.5039 
     34 O          24.9449  -50.1100  -59.5220 O.2       8 UNK        -0.5547 
     35 CA         27.0842  -50.9339  -60.2603 C.3       7 UNK         0.0281 
     36 CB         26.4750  -51.0026  -61.6782 C.3       7 UNK        -0.1963 
     37 N          28.3553  -50.1980  -60.2702 N.am      7 UNK        -0.4444 
     38 C          28.5364  -48.8940  -60.5305 C.2       7 UNK         0.5104 
     39 O          27.6318  -48.1095  -60.8175 O.2       7 UNK        -0.5100 
     40 CA         29.9938  -48.4011  -60.4453 C.3       6 UNK         0.0396 
     41 CB         30.1372  -46.8746  -60.6284 C.3       6 UNK        -0.1801 
     42 N          30.6762  -48.8477  -59.2228 N.am      6 UNK        -0.4747 
     43 C          30.3404  -48.5550  -57.9557 C.2       6 UNK         0.5012 
     44 O          29.3458  -47.8886  -57.6547 O.2       6 UNK        -0.5003 
     45 CA         31.2853  -49.1078  -56.8593 C.3       5 UNK         0.0782 
     46 C46        32.7925  -48.7965  -57.1236 C.3       11 UNK        -0.0868 
     47 S47        33.4192  -47.2466  -56.3839 S.3       11 UNK        -0.2515 
     48 C48        32.8782  -45.9804  -57.5712 C.3       11 UNK         0.0199 
     49 N          30.8833  -48.7005  -55.5106 N.am      5 UNK        -0.4607 
     50 C          29.7965  -49.1076  -54.8494 C.2       4 UNK         0.5031 
     51 O          29.0221  -49.9692  -55.2677 O.2       4 UNK        -0.5119 
     52 CA         29.5773  -48.4422  -53.4781 C.3       4 UNK         0.0263 
     53 CB         28.2647  -48.8792  -52.7926 C.3       4 UNK        -0.1967 
     54 N          30.7359  -48.6328  -52.5943 N.am      4 UNK        -0.4237 
     55 C          31.2366  -49.8037  -52.1601 C.2       3 UNK         0.4908 
     56 O          30.7296  -50.9000  -52.4011 O.2       3 UNK        -0.5102 
     57 CA         32.5333  -49.7731  -51.3282 C.3       3 UNK         0.0241 
     58 CB         33.6917  -50.3994  -52.1233 C.3       3 UNK        -0.1971 
     59 N          32.9184  -48.4297  -50.8866 N.am      3 UNK        -0.4139 
     60 C          32.3390  -47.7794  -49.8651 C.2       2 UNK         0.5016 
     61 O          31.4548  -48.2732  -49.1641 O.2       2 UNK        -0.5319 
     62 CA         32.8009  -46.3394  -49.5632 C.3       2 UNK         0.0286 
     63 CB         33.6751  -46.3109  -48.2986 C.3       2 UNK        -0.1963 
     64 N          33.5272  -45.6825  -50.6539 N.am      2 UNK        -0.4790 
     65 C          33.0244  -45.3926  -51.8633 C.2       1 UNK         0.5024 
     66 O          31.8714  -45.6618  -52.2008 O.2       1 UNK        -0.4888 
     67 H67        37.8286  -45.9525  -52.7615 H         1 UNK         0.0892 
     68 H68        37.4735  -47.4797  -51.9503 H         1 UNK         0.0892 
     69 H69        37.5178  -47.4056  -53.7137 H         1 UNK         0.0892 
     70 H70        36.0861  -44.5653  -52.7617 H         1 UNK         0.3107 
     71 H71        33.6231  -45.0105  -53.8681 H         1 UNK         0.0773 
     72 H72        34.3247  -42.9072  -51.7461 H         1 UNK         0.0680 
     73 H73        32.9557  -42.8214  -52.8183 H         1 UNK         0.0680 
     74 H74        33.3084  -40.8340  -54.6330 H         1 UNK         0.0650 
     75 H75        34.3569  -41.2202  -55.9766 H         1 UNK         0.0650 
     76 H76        34.3176  -43.8469  -56.6798 H         1 UNK         0.1397 
     77 H77        30.3384  -45.4519  -56.7324 H         1 UNK         0.1363 
     78 H78        31.1405  -41.7794  -54.6735 H         1 UNK         0.1355 
     79 H79        28.8160  -42.4523  -55.1880 H         1 UNK         0.0707 
     80 H80        28.4897  -43.9533  -56.0197 H         1 UNK         0.0707 
     81 H81        26.6957  -43.2941  -54.0324 H         1 UNK         0.1034 
     82 H82        26.9228  -43.8185  -52.3888 H         1 UNK         0.1034 
     83 H83        26.7666  -46.2173  -53.1296 H         1 UNK         0.0482 
     84 H84        24.1273  -46.6579  -54.6866 H         1 UNK         0.3460 
     85 H85        22.9495  -46.1205  -53.5126 H         1 UNK         0.3460 
     86 H86        26.9017  -46.7735  -55.2522 H         1 UNK         0.2989 
     87 H87        25.1696  -45.8858  -58.0940 H         1 UNK         0.0559 
     88 H88        27.0657  -44.3180  -58.5357 H         1 UNK         0.0848 
     89 H89        27.2709  -45.8362  -59.3900 H         1 UNK         0.0848 
     90 H90        28.2051  -45.5100  -57.9302 H         1 UNK         0.0848 
     91 H91        27.2580  -47.7975  -57.6826 H         1 UNK         0.3144 
     92 H92        26.6025  -49.8132  -55.9525 H         1 UNK         0.0727 
     93 H93        25.0808  -51.7651  -56.2832 H         1 UNK         0.0790 
     94 H94        23.9274  -50.7241  -57.1179 H         1 UNK         0.0790 
     95 H95        24.2979  -50.4505  -55.4236 H         1 UNK         0.0790 
     96 H96        27.5669  -50.5084  -57.8135 H         1 UNK         0.3215 
     97 H97        27.3199  -51.9564  -59.9603 H         1 UNK         0.0863 
     98 H98        27.1833  -51.4171  -62.3954 H         1 UNK         0.0808 
     99 H99        26.1687  -50.0200  -62.0383 H         1 UNK         0.0808 
    100 H100       25.5908  -51.6411  -61.6911 H         1 UNK         0.0808 
    101 H101       29.1767  -50.7406  -60.0410 H         1 UNK         0.3118 
    102 H102       30.5160  -48.8739  -61.2785 H         1 UNK         0.0546 
    103 H103       29.6559  -46.3191  -59.8246 H         1 UNK         0.0828 
    104 H104       29.6843  -46.5476  -61.5651 H         1 UNK         0.0828 
    105 H105       31.1850  -46.5772  -60.6580 H         1 UNK         0.0828 
    106 H106       31.4941  -49.4215  -59.3777 H         1 UNK         0.3005 
    107 H107       31.1636  -50.1925  -56.9068 H         1 UNK         0.1257 
    108 H108       33.3838  -49.5956  -56.6735 H         1 UNK         0.0775 
    109 H109       33.0605  -48.8215  -58.1806 H         1 UNK         0.0775 
    110 H110       33.7126  -45.7121  -58.2209 H         1 UNK         0.0840 
    111 H111       32.0933  -46.3608  -58.2234 H         1 UNK         0.0840 
    112 H112       31.4663  -47.9874  -55.0956 H         1 UNK         0.2987 
    113 H113       29.5061  -47.3692  -53.6641 H         1 UNK         0.0785 
    114 H114       28.1148  -48.3490  -51.8522 H         1 UNK         0.0798 
    115 H115       28.2497  -49.9487  -52.5813 H         1 UNK         0.0798 
    116 H116       27.4041  -48.6663  -53.4275 H         1 UNK         0.0798 
    117 H117       31.2328  -47.7847  -52.3453 H         1 UNK         0.3079 
    118 H118       32.3643  -50.3895  -50.4426 H         1 UNK         0.0794 
    119 H119       33.4854  -51.4454  -52.3535 H         1 UNK         0.0786 
    120 H120       34.6254  -50.3693  -51.5614 H         1 UNK         0.0786 
    121 H121       33.8529  -49.8865  -53.0722 H         1 UNK         0.0786 
    122 H122       33.6313  -47.9600  -51.4393 H         1 UNK         0.3032 
    123 H123       31.8986  -45.7545  -49.3706 H         1 UNK         0.1094 
    124 H124       34.6051  -46.8634  -48.4387 H         1 UNK         0.0794 
    125 H125       33.9288  -45.2899  -48.0127 H         1 UNK         0.0794 
    126 H126       33.1539  -46.7606  -47.4521 H         1 UNK         0.0794 
    127 H127       34.4947  -45.4514  -50.4784 H         1 UNK         0.3016 
@<TRIPOS>BOND
     1    1    2 1    
     2    1   67 1    
     3    1   68 1    
     4    1   69 1    
     5    2    3 2    
     6    2    4 am   BACKBONE|DICT|INTERRES
     7    4    5 1    
     8    4   70 1    
     9    5    6 1    
    10    5   65 1    
    11    5   71 1    
    12    6    7 1    
    13    6   72 1    
    14    6   73 1    
    15    7    8 1    
    16    8    9 1    
    17    8   74 1    
    18    8   75 1    
    19    9   10 ar   
    20    9   14 ar   
    21   10   11 ar   
    22   10   76 1    
    23   11   12 ar   
    24   11   48 1    
    25   12   13 ar   
    26   12   77 1    
    27   13   14 ar   
    28   13   15 1    
    29   14   78 1    
    30   15   16 1    
    31   15   79 1    
    32   15   80 1    
    33   16   17 1    
    34   17   18 1    
    35   17   81 1    
    36   17   82 1    
    37   18   19 1    
    38   18   22 1    
    39   18   83 1    
    40   19   20 am   BACKBONE|DICT|INTERRES
    41   19   21 2    
    42   20   84 1    
    43   20   85 1    
    44   22   23 am   BACKBONE|DICT|INTERRES
    45   22   86 1    
    46   23   24 2    
    47   23   25 1    
    48   25   26 1    
    49   25   27 1    
    50   25   87 1    
    51   26   88 1    
    52   26   89 1    
    53   26   90 1    
    54   27   28 am   BACKBONE|DICT|INTERRES
    55   27   91 1    
    56   28   29 2    
    57   28   30 1    
    58   30   31 1    
    59   30   32 1    
    60   30   92 1    
    61   31   93 1    
    62   31   94 1    
    63   31   95 1    
    64   32   33 am   BACKBONE|DICT|INTERRES
    65   32   96 1    
    66   33   34 2    
    67   33   35 1    
    68   35   36 1    
    69   35   37 1    
    70   35   97 1    
    71   36   98 1    
    72   36   99 1    
    73   36  100 1    
    74   37   38 am   BACKBONE|DICT|INTERRES
    75   37  101 1    
    76   38   39 2    
    77   38   40 1    
    78   40   41 1    
    79   40   42 1    
    80   40  102 1    
    81   41  103 1    
    82   41  104 1    
    83   41  105 1    
    84   42   43 am   BACKBONE|DICT|INTERRES
    85   42  106 1    
    86   43   44 2    
    87   43   45 1    
    88   45   46 1    
    89   45   49 1    
    90   45  107 1    
    91   46   47 1    
    92   46  108 1    
    93   46  109 1    
    94   47   48 1    
    95   48  110 1    
    96   48  111 1    
    97   49   50 am   BACKBONE|DICT|INTERRES
    98   49  112 1    
    99   50   51 2    
   100   50   52 1    
   101   52   53 1    
   102   52   54 1    
   103   52  113 1    
   104   53  114 1    
   105   53  115 1    
   106   53  116 1    
   107   54   55 am   BACKBONE|DICT|INTERRES
   108   54  117 1    
   109   55   56 2    
   110   55   57 1    
   111   57   58 1    
   112   57   59 1    
   113   57  118 1    
   114   58  119 1    
   115   58  120 1    
   116   58  121 1    
   117   59   60 am   BACKBONE|DICT|INTERRES
   118   59  122 1    
   119   60   61 2    
   120   60   62 1    
   121   62   63 1    
   122   62   64 1    
   123   62  123 1    
   124   63  124 1    
   125   63  125 1    
   126   63  126 1    
   127   64   65 am   BACKBONE|DICT|INTERRES
   128   64  127 1    
   129   65   66 2    
@<TRIPOS>SUBSTRUCTURE
     1 UNK         1 GROUP             0       ****    0 ROOT    
