@<TRIPOS>MOLECULE
3R134
127   129    1
SMALL
USER_CHARGES


@<TRIPOS>ATOM
      1 CA         37.7970  -44.5651  -55.6073 C.3       0 UNK        -0.1968 
      2 C          36.3181  -44.8724  -55.7932 C.2       0 UNK         0.4852 
      3 O          35.6915  -44.3255  -56.7021 O.2       0 UNK        -0.5359 
      4 N          35.7625  -45.7453  -54.9457 N.am      1 UNK        -0.4300 
      5 CA         34.3624  -46.1755  -54.9828 C.3       1 UNK         0.0863 
      6 C6         33.3582  -45.0930  -54.5058 C.3       11 UNK        -0.0953 
      7 S7         33.6205  -44.5001  -52.7933 S.3       11 UNK        -0.2369 
      8 C8         32.4807  -43.0817  -52.7058 C.3       11 UNK         0.0226 
      9 C9         31.0695  -43.4687  -53.1196 C.ar      11 UNK        -0.0699 
     10 C10        30.2400  -44.1770  -52.2437 C.ar      11 UNK        -0.0804 
     11 C11        28.9708  -44.5947  -52.6560 C.ar      11 UNK        -0.0871 
     12 C12        28.5356  -44.2903  -53.9497 C.ar      11 UNK        -0.1008 
     13 C13        29.3530  -43.5757  -54.8291 C.ar      11 UNK        -0.0735 
     14 C14        30.6141  -43.1567  -54.4037 C.ar      11 UNK        -0.0945 
     15 C15        28.9108  -43.3207  -56.2613 C.3       11 UNK         0.0169 
     16 S16        28.0401  -41.7341  -56.4733 S.3       11 UNK        -0.2669 
     17 C17        26.3759  -42.0880  -55.7973 C.3       11 UNK        -0.0850 
     18 CA         25.2918  -42.4416  -56.8599 C.3       10 UNK         0.0855 
     19 C          24.9029  -41.2415  -57.7642 C.2       10 UNK         0.5543 
     20 N          24.3363  -40.1885  -57.1910 N.am      10 UNK        -0.7343 
     21 O          25.1028  -41.2555  -58.9787 O.2       10 UNK        -0.5027 
     22 N          25.6285  -43.6182  -57.6705 N.am      10 UNK        -0.4495 
     23 C          25.7116  -44.8789  -57.2362 C.2       10 UNK         0.4903 
     24 O          25.5102  -45.2078  -56.0645 O.2       10 UNK        -0.4860 
     25 CA         26.0866  -45.9382  -58.2912 C.3       9 UNK         0.0227 
     26 CB         27.2949  -45.5220  -59.1517 C.3       9 UNK        -0.1964 
     27 N          26.3973  -47.2157  -57.6514 N.am      9 UNK        -0.4231 
     28 C          25.5274  -48.2155  -57.4707 C.2       9 UNK         0.5014 
     29 O          24.3634  -48.1943  -57.8795 O.2       9 UNK        -0.5270 
     30 CA         26.0547  -49.4455  -56.7045 C.3       8 UNK         0.0284 
     31 CB         25.0601  -50.6258  -56.6979 C.3       8 UNK        -0.1977 
     32 N          27.3765  -49.8952  -57.1579 N.am      8 UNK        -0.4342 
     33 C          27.7461  -50.2609  -58.3948 C.2       8 UNK         0.5039 
     34 O          26.9964  -50.2634  -59.3735 O.2       8 UNK        -0.5547 
     35 CA         29.2130  -50.7112  -58.5417 C.3       7 UNK         0.0281 
     36 CB         29.5894  -51.1249  -59.9813 C.3       7 UNK        -0.1963 
     37 N          30.1485  -49.7141  -58.0074 N.am      7 UNK        -0.4444 
     38 C          30.3693  -48.4686  -58.4565 C.2       7 UNK         0.5104 
     39 O          29.8652  -47.9948  -59.4753 O.2       7 UNK        -0.5100 
     40 CA         31.3108  -47.6099  -57.5841 C.3       6 UNK         0.0396 
     41 CB         31.3470  -46.1244  -57.9991 C.3       6 UNK        -0.1801 
     42 N          31.0186  -47.7351  -56.1508 N.am      6 UNK        -0.4747 
     43 C          29.8444  -47.4878  -55.5449 C.2       6 UNK         0.5012 
     44 O          28.8382  -47.0927  -56.1376 O.2       6 UNK        -0.5003 
     45 CA         29.7953  -47.7943  -54.0318 C.3       5 UNK         0.0782 
     46 C46        28.3801  -47.6452  -53.4005 C.3       11 UNK        -0.0868 
     47 S47        28.5160  -47.1592  -51.6482 S.3       11 UNK        -0.2515 
     48 C48        28.0722  -45.3897  -51.7158 C.3       11 UNK         0.0199 
     49 N          30.4053  -49.0964  -53.7225 N.am      5 UNK        -0.4607 
     50 C          30.0180  -50.2872  -54.2113 C.2       4 UNK         0.5031 
     51 O          29.1096  -50.4207  -55.0311 O.2       4 UNK        -0.5119 
     52 CA         30.7736  -51.5504  -53.7596 C.3       4 UNK         0.0263 
     53 CB         31.6726  -52.0605  -54.8985 C.3       4 UNK        -0.1967 
     54 N          31.5931  -51.3485  -52.5674 N.am      4 UNK        -0.4237 
     55 C          31.1299  -51.1634  -51.3228 C.2       3 UNK         0.4908 
     56 O          29.9456  -51.2802  -51.0074 O.2       3 UNK        -0.5102 
     57 CA         32.1629  -50.7541  -50.2528 C.3       3 UNK         0.0241 
     58 CB         32.5001  -51.9478  -49.3442 C.3       3 UNK        -0.1971 
     59 N          33.4074  -50.2059  -50.8113 N.am      3 UNK        -0.4139 
     60 C          33.4927  -49.0830  -51.5400 C.2       2 UNK         0.5016 
     61 O          32.5272  -48.3457  -51.7535 O.2       2 UNK        -0.5319 
     62 CA         34.8755  -48.7663  -52.1473 C.3       2 UNK         0.0286 
     63 CB         35.5093  -49.9956  -52.8386 C.3       2 UNK        -0.1963 
     64 N          34.8581  -47.6218  -53.0687 N.am      2 UNK        -0.4790 
     65 C          34.1902  -47.5060  -54.2301 C.2       1 UNK         0.5024 
     66 O          33.4836  -48.3885  -54.7234 O.2       1 UNK        -0.4888 
     67 H67        38.2247  -45.1064  -54.7635 H         1 UNK         0.0892 
     68 H68        38.3529  -44.8397  -56.5033 H         1 UNK         0.0892 
     69 H69        37.9385  -43.4991  -55.4316 H         1 UNK         0.0892 
     70 H70        36.3413  -46.2071  -54.2586 H         1 UNK         0.3107 
     71 H71        34.1276  -46.3976  -56.0264 H         1 UNK         0.0773 
     72 H72        33.4032  -44.2325  -55.1745 H         1 UNK         0.0680 
     73 H73        32.3403  -45.4772  -54.5892 H         1 UNK         0.0680 
     74 H74        32.4725  -42.6932  -51.6865 H         1 UNK         0.0650 
     75 H75        32.8620  -42.2787  -53.3385 H         1 UNK         0.0650 
     76 H76        30.5947  -44.4293  -51.2535 H         1 UNK         0.1397 
     77 H77        27.5686  -44.6386  -54.2844 H         1 UNK         0.1363 
     78 H78        31.2577  -42.6206  -55.0878 H         1 UNK         0.1355 
     79 H79        29.7822  -43.3242  -56.9176 H         1 UNK         0.0707 
     80 H80        28.2857  -44.1430  -56.5992 H         1 UNK         0.0707 
     81 H81        26.0635  -41.2174  -55.2189 H         1 UNK         0.1034 
     82 H82        26.4397  -42.8881  -55.0640 H         1 UNK         0.1034 
     83 H83        24.3774  -42.7005  -56.3224 H         1 UNK         0.0482 
     84 H84        24.1545  -40.1651  -56.1998 H         1 UNK         0.3460 
     85 H85        24.0775  -39.4009  -57.7647 H         1 UNK         0.3460 
     86 H86        25.7779  -43.4068  -58.6485 H         1 UNK         0.2989 
     87 H87        25.2274  -46.0539  -58.9545 H         1 UNK         0.0559 
     88 H88        27.5403  -46.2969  -59.8787 H         1 UNK         0.0848 
     89 H89        28.1837  -45.3553  -58.5462 H         1 UNK         0.0848 
     90 H90        27.1015  -44.6098  -59.7162 H         1 UNK         0.0848 
     91 H91        27.3098  -47.2789  -57.2023 H         1 UNK         0.3144 
     92 H92        26.1868  -49.1211  -55.6711 H         1 UNK         0.0727 
     93 H93        25.4409  -51.4612  -56.1104 H         1 UNK         0.0790 
     94 H94        24.8584  -50.9885  -57.7064 H         1 UNK         0.0790 
     95 H95        24.1056  -50.3314  -56.2599 H         1 UNK         0.0790 
     96 H96        28.0774  -49.9657  -56.4191 H         1 UNK         0.3215 
     97 H97        29.3204  -51.5968  -57.9130 H         1 UNK         0.0863 
     98 H98        30.6260  -51.4561  -60.0415 H         1 UNK         0.0808 
     99 H99        29.4556  -50.3075  -60.6903 H         1 UNK         0.0808 
    100 H100       28.9646  -51.9514  -60.3222 H         1 UNK         0.0808 
    101 H101       30.5911  -49.9648  -57.1348 H         1 UNK         0.3118 
    102 H102       32.3132  -48.0151  -57.7292 H         1 UNK         0.0546 
    103 H103       30.3756  -45.6479  -57.8785 H         1 UNK         0.0828 
    104 H104       31.6361  -46.0157  -59.0450 H         1 UNK         0.0828 
    105 H105       32.0678  -45.5633  -57.4049 H         1 UNK         0.0828 
    106 H106       31.7848  -48.0851  -55.5795 H         1 UNK         0.3005 
    107 H107       30.4474  -47.0394  -53.5871 H         1 UNK         0.1257 
    108 H108       27.7613  -46.9105  -53.9138 H         1 UNK         0.0775 
    109 H109       27.8176  -48.5774  -53.4651 H         1 UNK         0.0775 
    110 H110       27.0273  -45.2948  -52.0160 H         1 UNK         0.0840 
    111 H111       28.1358  -44.9715  -50.7102 H         1 UNK         0.0840 
    112 H112       31.1776  -49.0572  -53.0637 H         1 UNK         0.2987 
    113 H113       30.0269  -52.3156  -53.5369 H         1 UNK         0.0785 
    114 H114       32.1764  -52.9870  -54.6223 H         1 UNK         0.0798 
    115 H115       32.4365  -51.3293  -55.1686 H         1 UNK         0.0798 
    116 H116       31.0881  -52.2696  -55.7956 H         1 UNK         0.0798 
    117 H117       32.5848  -51.2438  -52.7191 H         1 UNK         0.3079 
    118 H118       31.7012  -49.9752  -49.6421 H         1 UNK         0.0794 
    119 H119       31.5978  -52.3588  -48.8888 H         1 UNK         0.0786 
    120 H120       33.1643  -51.6538  -48.5312 H         1 UNK         0.0786 
    121 H121       32.9814  -52.7548  -49.8983 H         1 UNK         0.0786 
    122 H122       34.2445  -50.7509  -50.6608 H         1 UNK         0.3032 
    123 H123       35.5169  -48.4768  -51.3130 H         1 UNK         0.1094 
    124 H124       35.7272  -50.7923  -52.1269 H         1 UNK         0.0794 
    125 H125       34.8587  -50.4128  -53.6080 H         1 UNK         0.0794 
    126 H126       36.4553  -49.7348  -53.3135 H         1 UNK         0.0794 
    127 H127       35.2941  -46.7853  -52.7065 H         1 UNK         0.3016 
@<TRIPOS>BOND
     1    1    2 1    
     2    1   67 1    
     3    1   68 1    
     4    1   69 1    
     5    2    3 2    
     6    2    4 am   BACKBONE|DICT|INTERRES
     7    4    5 1    
     8    4   70 1    
     9    5    6 1    
    10    5   65 1    
    11    5   71 1    
    12    6    7 1    
    13    6   72 1    
    14    6   73 1    
    15    7    8 1    
    16    8    9 1    
    17    8   74 1    
    18    8   75 1    
    19    9   10 ar   
    20    9   14 ar   
    21   10   11 ar   
    22   10   76 1    
    23   11   12 ar   
    24   11   48 1    
    25   12   13 ar   
    26   12   77 1    
    27   13   14 ar   
    28   13   15 1    
    29   14   78 1    
    30   15   16 1    
    31   15   79 1    
    32   15   80 1    
    33   16   17 1    
    34   17   18 1    
    35   17   81 1    
    36   17   82 1    
    37   18   19 1    
    38   18   22 1    
    39   18   83 1    
    40   19   20 am   BACKBONE|DICT|INTERRES
    41   19   21 2    
    42   20   84 1    
    43   20   85 1    
    44   22   23 am   BACKBONE|DICT|INTERRES
    45   22   86 1    
    46   23   24 2    
    47   23   25 1    
    48   25   26 1    
    49   25   27 1    
    50   25   87 1    
    51   26   88 1    
    52   26   89 1    
    53   26   90 1    
    54   27   28 am   BACKBONE|DICT|INTERRES
    55   27   91 1    
    56   28   29 2    
    57   28   30 1    
    58   30   31 1    
    59   30   32 1    
    60   30   92 1    
    61   31   93 1    
    62   31   94 1    
    63   31   95 1    
    64   32   33 am   BACKBONE|DICT|INTERRES
    65   32   96 1    
    66   33   34 2    
    67   33   35 1    
    68   35   36 1    
    69   35   37 1    
    70   35   97 1    
    71   36   98 1    
    72   36   99 1    
    73   36  100 1    
    74   37   38 am   BACKBONE|DICT|INTERRES
    75   37  101 1    
    76   38   39 2    
    77   38   40 1    
    78   40   41 1    
    79   40   42 1    
    80   40  102 1    
    81   41  103 1    
    82   41  104 1    
    83   41  105 1    
    84   42   43 am   BACKBONE|DICT|INTERRES
    85   42  106 1    
    86   43   44 2    
    87   43   45 1    
    88   45   46 1    
    89   45   49 1    
    90   45  107 1    
    91   46   47 1    
    92   46  108 1    
    93   46  109 1    
    94   47   48 1    
    95   48  110 1    
    96   48  111 1    
    97   49   50 am   BACKBONE|DICT|INTERRES
    98   49  112 1    
    99   50   51 2    
   100   50   52 1    
   101   52   53 1    
   102   52   54 1    
   103   52  113 1    
   104   53  114 1    
   105   53  115 1    
   106   53  116 1    
   107   54   55 am   BACKBONE|DICT|INTERRES
   108   54  117 1    
   109   55   56 2    
   110   55   57 1    
   111   57   58 1    
   112   57   59 1    
   113   57  118 1    
   114   58  119 1    
   115   58  120 1    
   116   58  121 1    
   117   59   60 am   BACKBONE|DICT|INTERRES
   118   59  122 1    
   119   60   61 2    
   120   60   62 1    
   121   62   63 1    
   122   62   64 1    
   123   62  123 1    
   124   63  124 1    
   125   63  125 1    
   126   63  126 1    
   127   64   65 am   BACKBONE|DICT|INTERRES
   128   64  127 1    
   129   65   66 2    
@<TRIPOS>SUBSTRUCTURE
     1 UNK         1 GROUP             0       ****    0 ROOT    
