@<TRIPOS>MOLECULE
3R134
127   129    1
SMALL
USER_CHARGES


@<TRIPOS>ATOM
      1 CA         34.7751  -43.5975  -57.1666 C.3       0 UNK        -0.1968 
      2 C          34.4822  -44.3674  -55.8883 C.2       0 UNK         0.4852 
      3 O          33.9360  -45.4690  -55.9514 O.2       0 UNK        -0.5359 
      4 N          34.8613  -43.8093  -54.7291 N.am      1 UNK        -0.4300 
      5 CA         34.5552  -44.3372  -53.3904 C.3       1 UNK         0.0863 
      6 C6         34.8815  -43.3213  -52.2624 C.3       11 UNK        -0.0953 
      7 S7         34.0922  -41.6885  -52.4823 S.3       11 UNK        -0.2369 
      8 C8         32.5651  -41.8612  -51.5000 C.3       11 UNK         0.0226 
      9 C9         31.5794  -42.7946  -52.1843 C.ar      11 UNK        -0.0699 
     10 C10        31.4526  -44.1218  -51.7642 C.ar      11 UNK        -0.0804 
     11 C11        30.6407  -45.0131  -52.4718 C.ar      11 UNK        -0.0871 
     12 C12        29.9079  -44.5559  -53.5706 C.ar      11 UNK        -0.1008 
     13 C13        30.0089  -43.2233  -53.9821 C.ar      11 UNK        -0.0735 
     14 C14        30.8422  -42.3460  -53.2836 C.ar      11 UNK        -0.0945 
     15 C15        29.2624  -42.7479  -55.2160 C.3       11 UNK         0.0169 
     16 S16        30.2269  -43.1149  -56.7134 S.3       11 UNK        -0.2669 
     17 C17        29.0961  -42.5577  -58.0366 C.3       11 UNK        -0.0850 
     18 CA         27.7821  -43.3869  -58.1609 C.3       10 UNK         0.0855 
     19 C          26.8789  -42.9100  -59.3398 C.2       10 UNK         0.5543 
     20 N          26.1305  -43.7864  -60.0010 N.am      10 UNK        -0.7343 
     21 O          26.8292  -41.7200  -59.6418 O.2       10 UNK        -0.5027 
     22 N          27.9907  -44.8429  -58.1033 N.am      10 UNK        -0.4495 
     23 C          28.6763  -45.5889  -58.9800 C.2       10 UNK         0.4903 
     24 O          29.3057  -45.1362  -59.9366 O.2       10 UNK        -0.4860 
     25 CA         28.6264  -47.1140  -58.7671 C.3       9 UNK         0.0227 
     26 CB         29.8654  -47.5832  -57.9883 C.3       9 UNK        -0.1964 
     27 N          27.4218  -47.5915  -58.0764 N.am      9 UNK        -0.4231 
     28 C          26.1550  -47.4149  -58.4853 C.2       9 UNK         0.5014 
     29 O          25.8440  -46.7892  -59.5014 O.2       9 UNK        -0.5270 
     30 CA         25.0609  -48.0075  -57.5776 C.3       8 UNK         0.0284 
     31 CB         23.6860  -48.1173  -58.2717 C.3       8 UNK        -0.1977 
     32 N          25.4590  -49.2824  -56.9689 N.am      8 UNK        -0.4342 
     33 C          25.7156  -50.4434  -57.5964 C.2       8 UNK         0.5039 
     34 O          25.6189  -50.5993  -58.8143 O.2       8 UNK        -0.5547 
     35 CA         26.1758  -51.6379  -56.7355 C.3       7 UNK         0.0281 
     36 CB         27.5878  -52.0935  -57.1430 C.3       7 UNK        -0.1963 
     37 N          26.1618  -51.3529  -55.2985 N.am      7 UNK        -0.4444 
     38 C          25.0617  -51.3507  -54.5320 C.2       7 UNK         0.5104 
     39 O          23.9471  -51.6787  -54.9386 O.2       7 UNK        -0.5100 
     40 CA         25.2176  -50.8761  -53.0749 C.3       6 UNK         0.0396 
     41 CB         25.2093  -52.0792  -52.1183 C.3       6 UNK        -0.1801 
     42 N          26.4211  -50.0749  -52.8244 N.am      6 UNK        -0.4747 
     43 C          26.6897  -48.8674  -53.3472 C.2       6 UNK         0.5012 
     44 O          25.9539  -48.2880  -54.1470 O.2       6 UNK        -0.5003 
     45 CA         28.0447  -48.2449  -52.9511 C.3       5 UNK         0.0782 
     46 C46        27.9091  -47.4340  -51.6325 C.3       11 UNK        -0.0868 
     47 S47        29.4478  -46.8931  -50.7948 S.3       11 UNK        -0.2515 
     48 C48        30.6441  -46.4877  -52.1088 C.3       11 UNK         0.0199 
     49 N          29.0961  -49.2702  -52.9000 N.am      5 UNK        -0.4607 
     50 C          29.5936  -49.8715  -53.9878 C.2       4 UNK         0.5031 
     51 O          29.1678  -49.6784  -55.1286 O.2       4 UNK        -0.5119 
     52 CA         30.7439  -50.8657  -53.7713 C.3       4 UNK         0.0263 
     53 CB         30.2767  -52.3015  -54.0604 C.3       4 UNK        -0.1967 
     54 N          31.8773  -50.5352  -54.6376 N.am      4 UNK        -0.4237 
     55 C          32.6691  -49.4688  -54.4619 C.2       3 UNK         0.4908 
     56 O          32.5754  -48.7041  -53.4999 O.2       3 UNK        -0.5102 
     57 CA         33.7133  -49.2048  -55.5607 C.3       3 UNK         0.0241 
     58 CB         33.0411  -48.6149  -56.8110 C.3       3 UNK        -0.1971 
     59 N          34.7514  -48.2782  -55.1026 N.am      3 UNK        -0.4139 
     60 C          35.7794  -48.6243  -54.3129 C.2       2 UNK         0.5016 
     61 O          36.0081  -49.7839  -53.9637 O.2       2 UNK        -0.5319 
     62 CA         36.7305  -47.5070  -53.8375 C.3       2 UNK         0.0286 
     63 CB         38.0275  -47.5171  -54.6634 C.3       2 UNK        -0.1963 
     64 N          36.1384  -46.1688  -53.9003 N.am      2 UNK        -0.4790 
     65 C          35.1849  -45.7139  -53.0744 C.2       1 UNK         0.5024 
     66 O          34.7929  -46.3396  -52.0889 O.2       1 UNK        -0.4888 
     67 H67        35.2884  -42.6567  -56.9686 H         1 UNK         0.0892 
     68 H68        35.4006  -44.1941  -57.8300 H         1 UNK         0.0892 
     69 H69        33.8435  -43.3731  -57.6859 H         1 UNK         0.0892 
     70 H70        35.3112  -42.9048  -54.7391 H         1 UNK         0.3107 
     71 H71        33.4807  -44.5137  -53.3902 H         1 UNK         0.0773 
     72 H72        34.5872  -43.7177  -51.2887 H         1 UNK         0.0680 
     73 H73        35.9596  -43.1606  -52.2051 H         1 UNK         0.0680 
     74 H74        32.1096  -40.8774  -51.3790 H         1 UNK         0.0650 
     75 H75        32.8078  -42.2128  -50.4960 H         1 UNK         0.0650 
     76 H76        32.0385  -44.4797  -50.9283 H         1 UNK         0.1397 
     77 H77        29.2933  -45.2439  -54.1341 H         1 UNK         0.1363 
     78 H78        30.9512  -41.3241  -53.6208 H         1 UNK         0.1355 
     79 H79        28.2923  -43.2431  -55.2634 H         1 UNK         0.0707 
     80 H80        29.0664  -41.6760  -55.1589 H         1 UNK         0.0707 
     81 H81        28.8652  -41.5043  -57.8678 H         1 UNK         0.1034 
     82 H82        29.6484  -42.5929  -58.9772 H         1 UNK         0.1034 
     83 H83        27.1828  -43.1623  -57.2791 H         1 UNK         0.0482 
     84 H84        26.1494  -44.7732  -59.7683 H         1 UNK         0.3460 
     85 H85        25.5435  -43.4620  -60.7528 H         1 UNK         0.3460 
     86 H86        27.5043  -45.3217  -57.3611 H         1 UNK         0.2989 
     87 H87        28.6419  -47.5821  -59.7533 H         1 UNK         0.0559 
     88 H88        29.8956  -47.1616  -56.9823 H         1 UNK         0.0848 
     89 H89        30.7820  -47.2791  -58.4958 H         1 UNK         0.0848 
     90 H90        29.8913  -48.6693  -57.8958 H         1 UNK         0.0848 
     91 H91        27.5735  -48.1253  -57.2321 H         1 UNK         0.3144 
     92 H92        24.9492  -47.3053  -56.7500 H         1 UNK         0.0727 
     93 H93        22.9351  -48.5345  -57.6009 H         1 UNK         0.0790 
     94 H94        23.7284  -48.7458  -59.1617 H         1 UNK         0.0790 
     95 H95        23.3287  -47.1360  -58.5866 H         1 UNK         0.0790 
     96 H96        25.5830  -49.2488  -55.9622 H         1 UNK         0.3215 
     97 H97        25.4857  -52.4609  -56.9342 H         1 UNK         0.0863 
     98 H98        28.3227  -51.2979  -57.0201 H         1 UNK         0.0808 
     99 H99        27.6125  -52.3952  -58.1910 H         1 UNK         0.0808 
    100 H100       27.9147  -52.9510  -56.5548 H         1 UNK         0.0808 
    101 H101       27.0345  -51.0498  -54.8887 H         1 UNK         0.3118 
    102 H102       24.3520  -50.2513  -52.8452 H         1 UNK         0.0546 
    103 H103       25.2259  -51.7596  -51.0762 H         1 UNK         0.0828 
    104 H104       26.0658  -52.7339  -52.2842 H         1 UNK         0.0828 
    105 H105       24.3093  -52.6807  -52.2545 H         1 UNK         0.0828 
    106 H106       27.1020  -50.4745  -52.1941 H         1 UNK         0.3005 
    107 H107       28.3050  -47.5450  -53.7482 H         1 UNK         0.1257 
    108 H108       27.3561  -48.0134  -50.8902 H         1 UNK         0.0775 
    109 H109       27.3052  -46.5430  -51.8150 H         1 UNK         0.0775 
    110 H110       31.6389  -46.7624  -51.7534 H         1 UNK         0.0840 
    111 H111       30.4928  -47.0845  -53.0048 H         1 UNK         0.0840 
    112 H112       29.4999  -49.4575  -51.9932 H         1 UNK         0.2987 
    113 H113       31.0755  -50.8134  -52.7318 H         1 UNK         0.0785 
    114 H114       29.4309  -52.5733  -53.4274 H         1 UNK         0.0798 
    115 H115       29.9607  -52.4235  -55.0971 H         1 UNK         0.0798 
    116 H116       31.0704  -53.0230  -53.8656 H         1 UNK         0.0798 
    117 H117       31.9855  -51.0934  -55.4719 H         1 UNK         0.3079 
    118 H118       34.1819  -50.1539  -55.8300 H         1 UNK         0.0794 
    119 H119       32.5139  -47.6882  -56.5805 H         1 UNK         0.0786 
    120 H120       32.3135  -49.3088  -57.2330 H         1 UNK         0.0786 
    121 H121       33.7711  -48.3980  -57.5910 H         1 UNK         0.0786 
    122 H122       34.5950  -47.2953  -55.3052 H         1 UNK         0.3032 
    123 H123       36.9842  -47.7217  -52.7967 H         1 UNK         0.1094 
    124 H124       37.8384  -47.3009  -55.7156 H         1 UNK         0.0794 
    125 H125       38.7417  -46.7824  -54.2910 H         1 UNK         0.0794 
    126 H126       38.5139  -48.4924  -54.6137 H         1 UNK         0.0794 
    127 H127       36.4002  -45.5882  -54.6839 H         1 UNK         0.3016 
@<TRIPOS>BOND
     1    1    2 1    
     2    1   67 1    
     3    1   68 1    
     4    1   69 1    
     5    2    3 2    
     6    2    4 am   BACKBONE|DICT|INTERRES
     7    4    5 1    
     8    4   70 1    
     9    5    6 1    
    10    5   65 1    
    11    5   71 1    
    12    6    7 1    
    13    6   72 1    
    14    6   73 1    
    15    7    8 1    
    16    8    9 1    
    17    8   74 1    
    18    8   75 1    
    19    9   10 ar   
    20    9   14 ar   
    21   10   11 ar   
    22   10   76 1    
    23   11   12 ar   
    24   11   48 1    
    25   12   13 ar   
    26   12   77 1    
    27   13   14 ar   
    28   13   15 1    
    29   14   78 1    
    30   15   16 1    
    31   15   79 1    
    32   15   80 1    
    33   16   17 1    
    34   17   18 1    
    35   17   81 1    
    36   17   82 1    
    37   18   19 1    
    38   18   22 1    
    39   18   83 1    
    40   19   20 am   BACKBONE|DICT|INTERRES
    41   19   21 2    
    42   20   84 1    
    43   20   85 1    
    44   22   23 am   BACKBONE|DICT|INTERRES
    45   22   86 1    
    46   23   24 2    
    47   23   25 1    
    48   25   26 1    
    49   25   27 1    
    50   25   87 1    
    51   26   88 1    
    52   26   89 1    
    53   26   90 1    
    54   27   28 am   BACKBONE|DICT|INTERRES
    55   27   91 1    
    56   28   29 2    
    57   28   30 1    
    58   30   31 1    
    59   30   32 1    
    60   30   92 1    
    61   31   93 1    
    62   31   94 1    
    63   31   95 1    
    64   32   33 am   BACKBONE|DICT|INTERRES
    65   32   96 1    
    66   33   34 2    
    67   33   35 1    
    68   35   36 1    
    69   35   37 1    
    70   35   97 1    
    71   36   98 1    
    72   36   99 1    
    73   36  100 1    
    74   37   38 am   BACKBONE|DICT|INTERRES
    75   37  101 1    
    76   38   39 2    
    77   38   40 1    
    78   40   41 1    
    79   40   42 1    
    80   40  102 1    
    81   41  103 1    
    82   41  104 1    
    83   41  105 1    
    84   42   43 am   BACKBONE|DICT|INTERRES
    85   42  106 1    
    86   43   44 2    
    87   43   45 1    
    88   45   46 1    
    89   45   49 1    
    90   45  107 1    
    91   46   47 1    
    92   46  108 1    
    93   46  109 1    
    94   47   48 1    
    95   48  110 1    
    96   48  111 1    
    97   49   50 am   BACKBONE|DICT|INTERRES
    98   49  112 1    
    99   50   51 2    
   100   50   52 1    
   101   52   53 1    
   102   52   54 1    
   103   52  113 1    
   104   53  114 1    
   105   53  115 1    
   106   53  116 1    
   107   54   55 am   BACKBONE|DICT|INTERRES
   108   54  117 1    
   109   55   56 2    
   110   55   57 1    
   111   57   58 1    
   112   57   59 1    
   113   57  118 1    
   114   58  119 1    
   115   58  120 1    
   116   58  121 1    
   117   59   60 am   BACKBONE|DICT|INTERRES
   118   59  122 1    
   119   60   61 2    
   120   60   62 1    
   121   62   63 1    
   122   62   64 1    
   123   62  123 1    
   124   63  124 1    
   125   63  125 1    
   126   63  126 1    
   127   64   65 am   BACKBONE|DICT|INTERRES
   128   64  127 1    
   129   65   66 2    
@<TRIPOS>SUBSTRUCTURE
     1 UNK         1 GROUP             0       ****    0 ROOT    
