@<TRIPOS>MOLECULE
3R134
127   129    1
SMALL
USER_CHARGES


@<TRIPOS>ATOM
      1 CA         33.2224  -42.0918  -53.5988 C.3       0 UNK        -0.1968 
      2 C          34.4039  -43.0499  -53.5819 C.2       0 UNK         0.4852 
      3 O          35.4485  -42.7244  -53.0145 O.2       0 UNK        -0.5359 
      4 N          34.2502  -44.2188  -54.2158 N.am      1 UNK        -0.4300 
      5 CA         35.2572  -45.2803  -54.2759 C.3       1 UNK         0.0863 
      6 C6         35.0515  -46.1789  -55.5265 C.3       11 UNK        -0.0953 
      7 S7         33.6869  -47.3891  -55.4172 S.3       11 UNK        -0.2369 
      8 C8         32.4120  -46.6680  -56.4989 C.3       11 UNK         0.0226 
      9 C9         31.6282  -45.5117  -55.8822 C.ar      11 UNK        -0.0699 
     10 C10        31.3058  -45.4766  -54.5194 C.ar      11 UNK        -0.0804 
     11 C11        30.4805  -44.4700  -54.0044 C.ar      11 UNK        -0.0871 
     12 C12        30.0075  -43.4697  -54.8585 C.ar      11 UNK        -0.1008 
     13 C13        30.3417  -43.4781  -56.2144 C.ar      11 UNK        -0.0735 
     14 C14        31.1505  -44.4995  -56.7179 C.ar      11 UNK        -0.0945 
     15 C15        29.8264  -42.3927  -57.1449 C.3       11 UNK         0.0169 
     16 S16        28.2542  -42.8745  -57.9247 S.3       11 UNK        -0.2669 
     17 C17        27.0255  -42.4116  -56.6558 C.3       11 UNK        -0.0850 
     18 CA         26.3298  -43.6143  -55.9617 C.3       10 UNK         0.0855 
     19 C          25.3890  -43.0742  -54.8446 C.2       10 UNK         0.5543 
     20 N          24.0851  -42.9732  -55.0719 N.am      10 UNK        -0.7343 
     21 O          25.8574  -42.7300  -53.7627 O.2       10 UNK        -0.5027 
     22 N          25.7194  -44.5357  -56.9402 N.am      10 UNK        -0.4495 
     23 C          25.0301  -45.6535  -56.6666 C.2       10 UNK         0.4903 
     24 O          24.7400  -46.0314  -55.5316 O.2       10 UNK        -0.4860 
     25 CA         24.6202  -46.5305  -57.8637 C.3       9 UNK         0.0227 
     26 CB         23.6541  -45.8073  -58.8248 C.3       9 UNK        -0.1964 
     27 N          25.7874  -47.1022  -58.5458 N.am      9 UNK        -0.4231 
     28 C          26.7266  -46.4676  -59.2648 C.2       9 UNK         0.5014 
     29 O          26.6112  -45.3053  -59.6544 O.2       9 UNK        -0.5270 
     30 CA         28.0285  -47.2345  -59.5702 C.3       8 UNK         0.0284 
     31 CB         29.2609  -46.3698  -59.2486 C.3       8 UNK        -0.1977 
     32 N          28.1210  -48.4672  -58.7846 N.am      8 UNK        -0.4342 
     33 C          28.1765  -49.7093  -59.2831 C.2       8 UNK         0.5039 
     34 O          28.2170  -49.9635  -60.4876 O.2       8 UNK        -0.5547 
     35 CA         28.1681  -50.8763  -58.2744 C.3       7 UNK         0.0281 
     36 CB         29.6011  -51.3697  -58.0178 C.3       7 UNK        -0.1963 
     37 N          27.5339  -50.5492  -56.9925 N.am      7 UNK        -0.4444 
     38 C          26.2436  -50.2106  -56.8411 C.2       7 UNK         0.5104 
     39 O          25.4324  -50.1913  -57.7664 O.2       7 UNK        -0.5100 
     40 CA         25.7845  -49.7442  -55.4466 C.3       6 UNK         0.0396 
     41 CB         25.1238  -50.9053  -54.6879 C.3       6 UNK        -0.1801 
     42 N          26.8428  -49.1653  -54.6134 N.am      6 UNK        -0.4747 
     43 C          27.6549  -48.1508  -54.9503 C.2       6 UNK         0.5012 
     44 O          27.6271  -47.5778  -56.0392 O.2       6 UNK        -0.5003 
     45 CA         28.7400  -47.7699  -53.9304 C.3       5 UNK         0.0782 
     46 C46        28.2727  -46.5945  -53.0351 C.3       11 UNK        -0.0868 
     47 S47        29.5745  -46.0662  -51.8663 S.3       11 UNK        -0.2515 
     48 C48        30.0877  -44.4448  -52.5300 C.3       11 UNK         0.0199 
     49 N          29.2287  -48.9103  -53.1433 N.am      5 UNK        -0.4607 
     50 C          29.8267  -49.9974  -53.6457 C.2       4 UNK         0.5031 
     51 O          29.9176  -50.2432  -54.8503 O.2       4 UNK        -0.5119 
     52 CA         30.4198  -50.9825  -52.6251 C.3       4 UNK         0.0263 
     53 CB         29.7179  -52.3478  -52.7165 C.3       4 UNK        -0.1967 
     54 N          31.8595  -51.1563  -52.8321 N.am      4 UNK        -0.4237 
     55 C          32.7727  -50.1833  -52.6984 C.2       3 UNK         0.4908 
     56 O          32.5009  -49.0458  -52.3074 O.2       3 UNK        -0.5102 
     57 CA         34.2223  -50.5566  -53.0647 C.3       3 UNK         0.0241 
     58 CB         34.3313  -51.0359  -54.5252 C.3       3 UNK        -0.1971 
     59 N          35.1317  -49.4237  -52.8724 N.am      3 UNK        -0.4139 
     60 C          35.7071  -49.0867  -51.7102 C.2       2 UNK         0.5016 
     61 O          35.5925  -49.7466  -50.6756 O.2       2 UNK        -0.5319 
     62 CA         36.5837  -47.8177  -51.6908 C.3       2 UNK         0.0286 
     63 CB         38.0734  -48.1967  -51.6344 C.3       2 UNK        -0.1963 
     64 N          36.3658  -46.9274  -52.8375 N.am      2 UNK        -0.4790 
     65 C          35.3343  -46.0789  -52.9522 C.2       1 UNK         0.5024 
     66 O          34.4711  -45.9396  -52.0818 O.2       1 UNK        -0.4888 
     67 H67        33.5696  -41.0601  -53.6476 H         1 UNK         0.0892 
     68 H68        32.5807  -42.2672  -54.4615 H         1 UNK         0.0892 
     69 H69        32.6273  -42.2102  -52.6940 H         1 UNK         0.0892 
     70 H70        33.3533  -44.4521  -54.6208 H         1 UNK         0.3107 
     71 H71        36.2272  -44.7924  -54.3956 H         1 UNK         0.0773 
     72 H72        34.9170  -45.5579  -56.4136 H         1 UNK         0.0680 
     73 H73        35.9631  -46.7471  -55.7179 H         1 UNK         0.0680 
     74 H74        31.6997  -47.4551  -56.7503 H         1 UNK         0.0650 
     75 H75        32.8764  -46.3649  -57.4385 H         1 UNK         0.0650 
     76 H76        31.6621  -46.2570  -53.8592 H         1 UNK         0.1397 
     77 H77        29.3733  -42.6844  -54.4705 H         1 UNK         0.1363 
     78 H78        31.3838  -44.5192  -57.7739 H         1 UNK         0.1355 
     79 H79        29.7158  -41.4460  -56.6141 H         1 UNK         0.0707 
     80 H80        30.5599  -42.2092  -57.9316 H         1 UNK         0.0707 
     81 H81        27.5055  -41.7711  -55.9138 H         1 UNK         0.1034 
     82 H82        26.2777  -41.7827  -57.1429 H         1 UNK         0.1034 
     83 H83        27.1030  -44.1945  -55.4552 H         1 UNK         0.0482 
     84 H84        23.4811  -42.6223  -54.3457 H         1 UNK         0.3460 
     85 H85        23.6988  -43.2644  -55.9554 H         1 UNK         0.3460 
     86 H86        25.9713  -44.3743  -57.9099 H         1 UNK         0.2989 
     87 H87        24.0799  -47.3867  -57.4565 H         1 UNK         0.0559 
     88 H88        22.7470  -45.5034  -58.3012 H         1 UNK         0.0848 
     89 H89        23.3512  -46.4596  -59.6438 H         1 UNK         0.0848 
     90 H90        24.0886  -44.9072  -59.2594 H         1 UNK         0.0848 
     91 H91        25.9694  -48.0708  -58.3161 H         1 UNK         0.3144 
     92 H92        28.0259  -47.4545  -60.6394 H         1 UNK         0.0727 
     93 H93        29.2700  -46.0726  -58.1990 H         1 UNK         0.0790 
     94 H94        29.2713  -45.4566  -59.8451 H         1 UNK         0.0790 
     95 H95        30.1886  -46.9032  -59.4557 H         1 UNK         0.0790 
     96 H96        28.0785  -48.3406  -57.7753 H         1 UNK         0.3215 
     97 H97        27.5992  -51.6923  -58.7251 H         1 UNK         0.0863 
     98 H98        29.6130  -52.2302  -57.3486 H         1 UNK         0.0808 
     99 H99        30.2214  -50.5907  -57.5721 H         1 UNK         0.0808 
    100 H100       30.0812  -51.6757  -58.9483 H         1 UNK         0.0808 
    101 H101       28.1455  -50.5037  -56.1847 H         1 UNK         0.3118 
    102 H102       25.0354  -48.9646  -55.5974 H         1 UNK         0.0546 
    103 H103       25.8354  -51.7030  -54.4708 H         1 UNK         0.0828 
    104 H104       24.3128  -51.3427  -55.2723 H         1 UNK         0.0828 
    105 H105       24.6936  -50.5708  -53.7438 H         1 UNK         0.0828 
    106 H106       26.9751  -49.5816  -53.7028 H         1 UNK         0.3005 
    107 H107       29.5839  -47.4330  -54.5310 H         1 UNK         0.1257 
    108 H108       27.3942  -46.8819  -52.4544 H         1 UNK         0.0775 
    109 H109       27.9653  -45.7425  -53.6449 H         1 UNK         0.0775 
    110 H110       29.2747  -43.7366  -52.3615 H         1 UNK         0.0840 
    111 H111       30.9366  -44.0835  -51.9483 H         1 UNK         0.0840 
    112 H112       29.2267  -48.7761  -52.1423 H         1 UNK         0.2987 
    113 H113       30.2717  -50.5883  -51.6174 H         1 UNK         0.0785 
    114 H114       28.6446  -52.2463  -52.5501 H         1 UNK         0.0798 
    115 H115       30.0967  -53.0408  -51.9651 H         1 UNK         0.0798 
    116 H116       29.8527  -52.8075  -53.6967 H         1 UNK         0.0798 
    117 H117       32.1566  -52.0560  -53.1801 H         1 UNK         0.3079 
    118 H118       34.5320  -51.3746  -52.4107 H         1 UNK         0.0794 
    119 H119       35.3681  -51.2256  -54.8040 H         1 UNK         0.0786 
    120 H120       33.9257  -50.3054  -55.2252 H         1 UNK         0.0786 
    121 H121       33.7866  -51.9675  -54.6806 H         1 UNK         0.0786 
    122 H122       35.2189  -48.7824  -53.6471 H         1 UNK         0.3032 
    123 H123       36.3368  -47.2745  -50.7753 H         1 UNK         0.1094 
    124 H124       38.3855  -48.7450  -52.5243 H         1 UNK         0.0794 
    125 H125       38.7053  -47.3130  -51.5436 H         1 UNK         0.0794 
    126 H126       38.2828  -48.8310  -50.7717 H         1 UNK         0.0794 
    127 H127       37.0386  -46.9863  -53.5893 H         1 UNK         0.3016 
@<TRIPOS>BOND
     1    1    2 1    
     2    1   67 1    
     3    1   68 1    
     4    1   69 1    
     5    2    3 2    
     6    2    4 am   BACKBONE|DICT|INTERRES
     7    4    5 1    
     8    4   70 1    
     9    5    6 1    
    10    5   65 1    
    11    5   71 1    
    12    6    7 1    
    13    6   72 1    
    14    6   73 1    
    15    7    8 1    
    16    8    9 1    
    17    8   74 1    
    18    8   75 1    
    19    9   10 ar   
    20    9   14 ar   
    21   10   11 ar   
    22   10   76 1    
    23   11   12 ar   
    24   11   48 1    
    25   12   13 ar   
    26   12   77 1    
    27   13   14 ar   
    28   13   15 1    
    29   14   78 1    
    30   15   16 1    
    31   15   79 1    
    32   15   80 1    
    33   16   17 1    
    34   17   18 1    
    35   17   81 1    
    36   17   82 1    
    37   18   19 1    
    38   18   22 1    
    39   18   83 1    
    40   19   20 am   BACKBONE|DICT|INTERRES
    41   19   21 2    
    42   20   84 1    
    43   20   85 1    
    44   22   23 am   BACKBONE|DICT|INTERRES
    45   22   86 1    
    46   23   24 2    
    47   23   25 1    
    48   25   26 1    
    49   25   27 1    
    50   25   87 1    
    51   26   88 1    
    52   26   89 1    
    53   26   90 1    
    54   27   28 am   BACKBONE|DICT|INTERRES
    55   27   91 1    
    56   28   29 2    
    57   28   30 1    
    58   30   31 1    
    59   30   32 1    
    60   30   92 1    
    61   31   93 1    
    62   31   94 1    
    63   31   95 1    
    64   32   33 am   BACKBONE|DICT|INTERRES
    65   32   96 1    
    66   33   34 2    
    67   33   35 1    
    68   35   36 1    
    69   35   37 1    
    70   35   97 1    
    71   36   98 1    
    72   36   99 1    
    73   36  100 1    
    74   37   38 am   BACKBONE|DICT|INTERRES
    75   37  101 1    
    76   38   39 2    
    77   38   40 1    
    78   40   41 1    
    79   40   42 1    
    80   40  102 1    
    81   41  103 1    
    82   41  104 1    
    83   41  105 1    
    84   42   43 am   BACKBONE|DICT|INTERRES
    85   42  106 1    
    86   43   44 2    
    87   43   45 1    
    88   45   46 1    
    89   45   49 1    
    90   45  107 1    
    91   46   47 1    
    92   46  108 1    
    93   46  109 1    
    94   47   48 1    
    95   48  110 1    
    96   48  111 1    
    97   49   50 am   BACKBONE|DICT|INTERRES
    98   49  112 1    
    99   50   51 2    
   100   50   52 1    
   101   52   53 1    
   102   52   54 1    
   103   52  113 1    
   104   53  114 1    
   105   53  115 1    
   106   53  116 1    
   107   54   55 am   BACKBONE|DICT|INTERRES
   108   54  117 1    
   109   55   56 2    
   110   55   57 1    
   111   57   58 1    
   112   57   59 1    
   113   57  118 1    
   114   58  119 1    
   115   58  120 1    
   116   58  121 1    
   117   59   60 am   BACKBONE|DICT|INTERRES
   118   59  122 1    
   119   60   61 2    
   120   60   62 1    
   121   62   63 1    
   122   62   64 1    
   123   62  123 1    
   124   63  124 1    
   125   63  125 1    
   126   63  126 1    
   127   64   65 am   BACKBONE|DICT|INTERRES
   128   64  127 1    
   129   65   66 2    
@<TRIPOS>SUBSTRUCTURE
     1 UNK         1 GROUP             0       ****    0 ROOT    
