@<TRIPOS>MOLECULE
3R134
127   129    1
SMALL
USER_CHARGES


@<TRIPOS>ATOM
      1 CA         32.0950  -48.6372  -58.2773 C.3       0 UNK        -0.1968 
      2 C          33.0952  -47.8229  -57.4672 C.2       0 UNK         0.4852 
      3 O          34.2212  -47.6220  -57.9247 O.2       0 UNK        -0.5359 
      4 N          32.6737  -47.3614  -56.2810 N.am      1 UNK        -0.4300 
      5 CA         33.4310  -46.5891  -55.2820 C.3       1 UNK         0.0863 
      6 C6         34.1465  -45.3212  -55.8367 C.3       11 UNK        -0.0953 
      7 S7         33.0575  -44.2086  -56.7916 S.3       11 UNK        -0.2369 
      8 C8         32.6935  -42.8985  -55.5830 C.3       11 UNK         0.0226 
      9 C9         31.6814  -43.3668  -54.5505 C.ar      11 UNK        -0.0699 
     10 C10        32.0974  -43.7813  -53.2841 C.ar      11 UNK        -0.0804 
     11 C11        31.1644  -44.2284  -52.3454 C.ar      11 UNK        -0.0871 
     12 C12        29.8049  -44.2469  -52.6765 C.ar      11 UNK        -0.1008 
     13 C13        29.3729  -43.8324  -53.9416 C.ar      11 UNK        -0.0735 
     14 C14        30.3218  -43.3863  -54.8689 C.ar      11 UNK        -0.0945 
     15 C15        27.8819  -43.8482  -54.2761 C.3       11 UNK         0.0169 
     16 S16        27.5143  -44.5132  -55.9373 S.3       11 UNK        -0.2669 
     17 C17        27.5125  -42.9960  -56.9613 C.3       11 UNK        -0.0850 
     18 CA         26.1111  -42.6740  -57.5454 C.3       10 UNK         0.0855 
     19 C          26.0875  -41.2655  -58.2089 C.2       10 UNK         0.5543 
     20 N          25.8082  -41.1397  -59.5007 N.am      10 UNK        -0.7343 
     21 O          26.3214  -40.2663  -57.5337 O.2       10 UNK        -0.5027 
     22 N          25.6342  -43.7655  -58.4096 N.am      10 UNK        -0.4495 
     23 C          24.3527  -44.0369  -58.6877 C.2       10 UNK         0.4903 
     24 O          23.4053  -43.3706  -58.2699 O.2       10 UNK        -0.4860 
     25 CA         24.0708  -45.2585  -59.5885 C.3       9 UNK         0.0227 
     26 CB         23.6527  -44.8005  -60.9959 C.3       9 UNK        -0.1964 
     27 N          25.1984  -46.1936  -59.7032 N.am      9 UNK        -0.4231 
     28 C          25.6693  -46.9490  -58.7013 C.2       9 UNK         0.5014 
     29 O          25.1650  -46.9784  -57.5761 O.2       9 UNK        -0.5270 
     30 CA         26.9379  -47.7654  -59.0089 C.3       8 UNK         0.0284 
     31 CB         28.1344  -46.8405  -59.3043 C.3       8 UNK        -0.1977 
     32 N          27.2897  -48.6124  -57.8726 N.am      8 UNK        -0.4342 
     33 C          26.8186  -49.8430  -57.6378 C.2       8 UNK         0.5039 
     34 O          26.1195  -50.4789  -58.4282 O.2       8 UNK        -0.5547 
     35 CA         27.1975  -50.4663  -56.2825 C.3       7 UNK         0.0281 
     36 CB         28.4868  -51.2883  -56.4205 C.3       7 UNK        -0.1963 
     37 N          27.3776  -49.4413  -55.2479 N.am      7 UNK        -0.4444 
     38 C          26.3613  -48.8383  -54.6107 C.2       7 UNK         0.5104 
     39 O          25.1868  -49.1898  -54.7328 O.2       7 UNK        -0.5100 
     40 CA         26.6900  -47.6212  -53.7190 C.3       6 UNK         0.0396 
     41 CB         25.8310  -47.5767  -52.4373 C.3       6 UNK        -0.1801 
     42 N          28.1172  -47.4514  -53.4108 N.am      6 UNK        -0.4747 
     43 C          28.8836  -48.2636  -52.6682 C.2       6 UNK         0.5012 
     44 O          28.4778  -49.2885  -52.1164 O.2       6 UNK        -0.5003 
     45 CA         30.3674  -47.8692  -52.5313 C.3       5 UNK         0.0782 
     46 C46        30.6417  -47.3240  -51.1096 C.3       11 UNK        -0.0868 
     47 S47        32.2143  -46.4111  -51.0152 S.3       11 UNK        -0.2515 
     48 C48        31.6361  -44.6858  -50.9742 C.3       11 UNK         0.0199 
     49 N          31.2255  -49.0114  -52.8708 N.am      5 UNK        -0.4607 
     50 C          31.2466  -49.6031  -54.0730 C.2       4 UNK         0.5031 
     51 O          30.6640  -49.1355  -55.0556 O.2       4 UNK        -0.5119 
     52 CA         32.0460  -50.9123  -54.1949 C.3       4 UNK         0.0263 
     53 CB         32.3052  -51.3249  -55.6554 C.3       4 UNK        -0.1967 
     54 N          33.3360  -50.7968  -53.5198 N.am      4 UNK        -0.4237 
     55 C          33.7592  -51.5501  -52.4962 C.2       3 UNK         0.4908 
     56 O          33.0712  -52.4144  -51.9520 O.2       3 UNK        -0.5102 
     57 CA         35.1983  -51.3169  -51.9948 C.3       3 UNK         0.0241 
     58 CB         36.1354  -52.4130  -52.5281 C.3       3 UNK        -0.1971 
     59 N          35.7348  -50.0063  -52.3710 N.am      3 UNK        -0.4139 
     60 C          35.3528  -48.8475  -51.8194 C.2       2 UNK         0.5016 
     61 O          34.5812  -48.7750  -50.8639 O.2       2 UNK        -0.5319 
     62 CA         35.9001  -47.5519  -52.4486 C.3       2 UNK         0.0286 
     63 CB         37.2802  -47.7244  -53.1232 C.3       2 UNK        -0.1963 
     64 N          34.9416  -46.9351  -53.3778 N.am      2 UNK        -0.4790 
     65 C          34.4080  -47.4815  -54.4823 C.2       1 UNK         0.5024 
     66 O          34.6542  -48.6323  -54.8522 O.2       1 UNK        -0.4888 
     67 H67        31.8679  -48.1271  -59.2129 H         1 UNK         0.0892 
     68 H68        32.5109  -49.6158  -58.5149 H         1 UNK         0.0892 
     69 H69        31.1591  -48.7897  -57.7397 H         1 UNK         0.0892 
     70 H70        31.7608  -47.6688  -55.9634 H         1 UNK         0.3107 
     71 H71        32.6796  -46.2569  -54.5650 H         1 UNK         0.0773 
     72 H72        34.5965  -44.7479  -55.0251 H         1 UNK         0.0680 
     73 H73        34.9784  -45.6029  -56.4836 H         1 UNK         0.0680 
     74 H74        32.2940  -42.0338  -56.1149 H         1 UNK         0.0650 
     75 H75        33.6154  -42.5619  -55.1066 H         1 UNK         0.0650 
     76 H76        33.1482  -43.7632  -53.0301 H         1 UNK         0.1397 
     77 H77        29.0816  -44.5815  -51.9452 H         1 UNK         0.1363 
     78 H78        30.0131  -43.0612  -55.8510 H         1 UNK         0.1355 
     79 H79        27.4757  -42.8415  -54.1725 H         1 UNK         0.0707 
     80 H80        27.3449  -44.4615  -53.5511 H         1 UNK         0.0707 
     81 H81        27.8750  -42.1583  -56.3628 H         1 UNK         0.1034 
     82 H82        28.2394  -43.1213  -57.7658 H         1 UNK         0.1034 
     83 H83        25.4211  -42.6053  -56.7020 H         1 UNK         0.0482 
     84 H84        25.6077  -41.9527  -60.0598 H         1 UNK         0.3460 
     85 H85        25.7920  -40.2217  -59.9167 H         1 UNK         0.3460 
     86 H86        26.3449  -44.3694  -58.7912 H         1 UNK         0.2989 
     87 H87        23.2322  -45.7989  -59.1444 H         1 UNK         0.0559 
     88 H88        24.4569  -44.2681  -61.5052 H         1 UNK         0.0848 
     89 H89        23.3609  -45.6461  -61.6192 H         1 UNK         0.0848 
     90 H90        22.7957  -44.1269  -60.9494 H         1 UNK         0.0848 
     91 H91        25.6623  -46.2335  -60.5999 H         1 UNK         0.3144 
     92 H92        26.7447  -48.3891  -59.8843 H         1 UNK         0.0727 
     93 H93        29.0413  -47.4170  -59.4891 H         1 UNK         0.0790 
     94 H94        28.3371  -46.1614  -58.4750 H         1 UNK         0.0790 
     95 H95        27.9614  -46.2311  -60.1918 H         1 UNK         0.0790 
     96 H96        27.8003  -48.1616  -57.1289 H         1 UNK         0.3215 
     97 H97        26.3923  -51.1396  -55.9798 H         1 UNK         0.0863 
     98 H98        28.8053  -51.7003  -55.4628 H         1 UNK         0.0808 
     99 H99        29.3009  -50.6823  -56.8185 H         1 UNK         0.0808 
    100 H100       28.3421  -52.1254  -57.1046 H         1 UNK         0.0808 
    101 H101       28.3240  -49.1323  -55.0644 H         1 UNK         0.3118 
    102 H102       26.4125  -46.7518  -54.3152 H         1 UNK         0.0546 
    103 H103       24.7691  -47.5258  -52.6806 H         1 UNK         0.0828 
    104 H104       26.0637  -46.7000  -51.8331 H         1 UNK         0.0828 
    105 H105       25.9764  -48.4618  -51.8178 H         1 UNK         0.0828 
    106 H106       28.5497  -46.6470  -53.8453 H         1 UNK         0.3005 
    107 H107       30.5774  -47.0770  -53.2533 H         1 UNK         0.1257 
    108 H108       30.6702  -48.1399  -50.3848 H         1 UNK         0.0775 
    109 H109       29.8380  -46.6645  -50.7766 H         1 UNK         0.0775 
    110 H110       30.8465  -44.5711  -50.2299 H         1 UNK         0.0840 
    111 H111       32.4569  -44.0495  -50.6395 H         1 UNK         0.0840 
    112 H112       31.7344  -49.4341  -52.1079 H         1 UNK         0.2987 
    113 H113       31.4354  -51.6883  -53.7292 H         1 UNK         0.0785 
    114 H114       31.3765  -51.4481  -56.2094 H         1 UNK         0.0798 
    115 H115       32.8344  -52.2764  -55.7060 H         1 UNK         0.0798 
    116 H116       32.9084  -50.5832  -56.1784 H         1 UNK         0.0798 
    117 H117       33.9589  -50.0850  -53.8965 H         1 UNK         0.3079 
    118 H118       35.1801  -51.3828  -50.9047 H         1 UNK         0.0794 
    119 H119       35.7823  -53.4037  -52.2379 H         1 UNK         0.0786 
    120 H120       37.1442  -52.3015  -52.1297 H         1 UNK         0.0786 
    121 H121       36.1991  -52.3959  -53.6169 H         1 UNK         0.0786 
    122 H122       36.3505  -49.9742  -53.1713 H         1 UNK         0.3032 
    123 H123       36.0278  -46.8506  -51.6218 H         1 UNK         0.1094 
    124 H124       37.6933  -46.7580  -53.4125 H         1 UNK         0.0794 
    125 H125       37.9962  -48.1848  -52.4408 H         1 UNK         0.0794 
    126 H126       37.2361  -48.3404  -54.0217 H         1 UNK         0.0794 
    127 H127       34.6354  -46.0096  -53.1127 H         1 UNK         0.3016 
@<TRIPOS>BOND
     1    1    2 1    
     2    1   67 1    
     3    1   68 1    
     4    1   69 1    
     5    2    3 2    
     6    2    4 am   BACKBONE|DICT|INTERRES
     7    4    5 1    
     8    4   70 1    
     9    5    6 1    
    10    5   65 1    
    11    5   71 1    
    12    6    7 1    
    13    6   72 1    
    14    6   73 1    
    15    7    8 1    
    16    8    9 1    
    17    8   74 1    
    18    8   75 1    
    19    9   10 ar   
    20    9   14 ar   
    21   10   11 ar   
    22   10   76 1    
    23   11   12 ar   
    24   11   48 1    
    25   12   13 ar   
    26   12   77 1    
    27   13   14 ar   
    28   13   15 1    
    29   14   78 1    
    30   15   16 1    
    31   15   79 1    
    32   15   80 1    
    33   16   17 1    
    34   17   18 1    
    35   17   81 1    
    36   17   82 1    
    37   18   19 1    
    38   18   22 1    
    39   18   83 1    
    40   19   20 am   BACKBONE|DICT|INTERRES
    41   19   21 2    
    42   20   84 1    
    43   20   85 1    
    44   22   23 am   BACKBONE|DICT|INTERRES
    45   22   86 1    
    46   23   24 2    
    47   23   25 1    
    48   25   26 1    
    49   25   27 1    
    50   25   87 1    
    51   26   88 1    
    52   26   89 1    
    53   26   90 1    
    54   27   28 am   BACKBONE|DICT|INTERRES
    55   27   91 1    
    56   28   29 2    
    57   28   30 1    
    58   30   31 1    
    59   30   32 1    
    60   30   92 1    
    61   31   93 1    
    62   31   94 1    
    63   31   95 1    
    64   32   33 am   BACKBONE|DICT|INTERRES
    65   32   96 1    
    66   33   34 2    
    67   33   35 1    
    68   35   36 1    
    69   35   37 1    
    70   35   97 1    
    71   36   98 1    
    72   36   99 1    
    73   36  100 1    
    74   37   38 am   BACKBONE|DICT|INTERRES
    75   37  101 1    
    76   38   39 2    
    77   38   40 1    
    78   40   41 1    
    79   40   42 1    
    80   40  102 1    
    81   41  103 1    
    82   41  104 1    
    83   41  105 1    
    84   42   43 am   BACKBONE|DICT|INTERRES
    85   42  106 1    
    86   43   44 2    
    87   43   45 1    
    88   45   46 1    
    89   45   49 1    
    90   45  107 1    
    91   46   47 1    
    92   46  108 1    
    93   46  109 1    
    94   47   48 1    
    95   48  110 1    
    96   48  111 1    
    97   49   50 am   BACKBONE|DICT|INTERRES
    98   49  112 1    
    99   50   51 2    
   100   50   52 1    
   101   52   53 1    
   102   52   54 1    
   103   52  113 1    
   104   53  114 1    
   105   53  115 1    
   106   53  116 1    
   107   54   55 am   BACKBONE|DICT|INTERRES
   108   54  117 1    
   109   55   56 2    
   110   55   57 1    
   111   57   58 1    
   112   57   59 1    
   113   57  118 1    
   114   58  119 1    
   115   58  120 1    
   116   58  121 1    
   117   59   60 am   BACKBONE|DICT|INTERRES
   118   59  122 1    
   119   60   61 2    
   120   60   62 1    
   121   62   63 1    
   122   62   64 1    
   123   62  123 1    
   124   63  124 1    
   125   63  125 1    
   126   63  126 1    
   127   64   65 am   BACKBONE|DICT|INTERRES
   128   64  127 1    
   129   65   66 2    
@<TRIPOS>SUBSTRUCTURE
     1 UNK         1 GROUP             0       ****    0 ROOT    
