@<TRIPOS>MOLECULE
3R134
127   129    1
SMALL
USER_CHARGES


@<TRIPOS>ATOM
      1 CA         33.4177  -45.8118  -50.9863 C.3       0 UNK        -0.1968 
      2 C          34.4841  -45.2661  -51.9242 C.2       0 UNK         0.4852 
      3 O          35.2882  -44.4269  -51.5151 O.2       0 UNK        -0.5359 
      4 N          34.4891  -45.7311  -53.1763 N.am      1 UNK        -0.4300 
      5 CA         35.4094  -45.3048  -54.2303 C.3       1 UNK         0.0863 
      6 C6         35.0321  -43.9449  -54.8880 C.3       11 UNK        -0.0953 
      7 S7         33.2716  -43.7953  -55.3542 S.3       11 UNK        -0.2369 
      8 C8         32.6538  -42.6695  -54.0611 C.3       11 UNK         0.0226 
      9 C9         31.2091  -42.9688  -53.6881 C.ar      11 UNK        -0.0699 
     10 C10        30.8735  -43.2907  -52.3697 C.ar      11 UNK        -0.0804 
     11 C11        29.5462  -43.5519  -52.0153 C.ar      11 UNK        -0.0871 
     12 C12        28.5483  -43.4912  -52.9932 C.ar      11 UNK        -0.1008 
     13 C13        28.8734  -43.1743  -54.3164 C.ar      11 UNK        -0.0735 
     14 C14        30.2024  -42.9060  -54.6547 C.ar      11 UNK        -0.0945 
     15 C15        27.7971  -43.1242  -55.3910 C.3       11 UNK         0.0169 
     16 S16        27.0380  -44.7488  -55.7138 S.3       11 UNK        -0.2669 
     17 C17        28.4810  -45.8352  -56.0001 C.3       11 UNK        -0.0850 
     18 CA         29.0840  -45.7138  -57.4219 C.3       10 UNK         0.0855 
     19 C          30.3975  -46.5460  -57.5351 C.2       10 UNK         0.5543 
     20 N          30.5231  -47.4772  -58.4733 N.am      10 UNK        -0.7343 
     21 O          31.3200  -46.3496  -56.7497 O.2       10 UNK        -0.5027 
     22 N          28.0809  -45.9931  -58.4662 N.am      10 UNK        -0.4495 
     23 C          28.1790  -45.5894  -59.7407 C.2       10 UNK         0.4903 
     24 O          29.1012  -44.8869  -60.1563 O.2       10 UNK        -0.4860 
     25 CA         27.0944  -46.0527  -60.7325 C.3       9 UNK         0.0227 
     26 CB         27.7256  -46.6045  -62.0245 C.3       9 UNK        -0.1964 
     27 N          26.2169  -47.0821  -60.1680 N.am      9 UNK        -0.4231 
     28 C          24.9354  -46.9059  -59.8211 C.2       9 UNK         0.5014 
     29 O          24.3276  -45.8411  -59.9396 O.2       9 UNK        -0.5270 
     30 CA         24.1983  -48.1316  -59.2477 C.3       8 UNK         0.0284 
     31 CB         23.4293  -48.8627  -60.3608 C.3       8 UNK        -0.1977 
     32 N          25.0709  -49.0872  -58.5522 N.am      8 UNK        -0.4342 
     33 C          25.7117  -48.8235  -57.4067 C.2       8 UNK         0.5039 
     34 O          25.6798  -47.7297  -56.8427 O.2       8 UNK        -0.5547 
     35 CA         26.5567  -49.9496  -56.8072 C.3       7 UNK         0.0281 
     36 CB         27.9750  -49.9487  -57.4024 C.3       7 UNK        -0.1963 
     37 N          26.6124  -49.7577  -55.3601 N.am      7 UNK        -0.4444 
     38 C          26.8166  -50.7199  -54.4565 C.2       7 UNK         0.5104 
     39 O          27.1076  -51.8800  -54.7544 O.2       7 UNK        -0.5100 
     40 CA         26.6579  -50.3200  -52.9760 C.3       6 UNK         0.0396 
     41 CB         26.6783  -51.5370  -52.0324 C.3       6 UNK        -0.1801 
     42 N          27.6873  -49.3780  -52.5377 N.am      6 UNK        -0.4747 
     43 C          27.7172  -48.0629  -52.7823 C.2       6 UNK         0.5012 
     44 O          26.8580  -47.4912  -53.4510 O.2       6 UNK        -0.5003 
     45 CA         28.8824  -47.2396  -52.1853 C.3       5 UNK         0.0782 
     46 C46        28.4541  -46.5988  -50.8383 C.3       11 UNK        -0.0868 
     47 S47        29.7425  -45.5431  -50.0913 S.3       11 UNK        -0.2515 
     48 C48        29.1982  -43.8726  -50.5689 C.3       11 UNK         0.0199 
     49 N          30.1641  -47.9645  -52.1272 N.am      5 UNK        -0.4607 
     50 C          30.5163  -49.0041  -51.3592 C.2       4 UNK         0.5031 
     51 O          29.7486  -49.5645  -50.5760 O.2       4 UNK        -0.5119 
     52 CA         31.9492  -49.5426  -51.5525 C.3       4 UNK         0.0263 
     53 CB         32.2510  -50.7614  -50.6606 C.3       4 UNK        -0.1967 
     54 N          32.2050  -49.9010  -52.9512 N.am      4 UNK        -0.4237 
     55 C          32.4781  -49.0274  -53.9267 C.2       3 UNK         0.4908 
     56 O          32.5917  -47.8114  -53.7361 O.2       3 UNK        -0.5102 
     57 CA         32.5795  -49.5973  -55.3462 C.3       3 UNK         0.0241 
     58 CB         31.1787  -49.9123  -55.8955 C.3       3 UNK        -0.1971 
     59 N          33.2092  -48.5851  -56.1846 N.am      3 UNK        -0.4139 
     60 C          34.2983  -48.7578  -56.9387 C.2       2 UNK         0.5016 
     61 O          34.7821  -49.8552  -57.2197 O.2       2 UNK        -0.5319 
     62 CA         35.0027  -47.4724  -57.4081 C.3       2 UNK         0.0286 
     63 CB         34.3934  -46.9483  -58.7181 C.3       2 UNK        -0.1963 
     64 N          34.9749  -46.4129  -56.3912 N.am      2 UNK        -0.4790 
     65 C          35.5955  -46.4800  -55.2037 C.2       1 UNK         0.5024 
     66 O          36.2982  -47.4313  -54.8575 O.2       1 UNK        -0.4888 
     67 H67        33.0755  -45.0337  -50.3046 H         1 UNK         0.0892 
     68 H68        32.5499  -46.1734  -51.5371 H         1 UNK         0.0892 
     69 H69        33.8203  -46.6318  -50.3930 H         1 UNK         0.0892 
     70 H70        33.8144  -46.4450  -53.4503 H         1 UNK         0.3107 
     71 H71        36.3932  -45.1695  -53.7751 H         1 UNK         0.0773 
     72 H72        35.6436  -43.7617  -55.7733 H         1 UNK         0.0680 
     73 H73        35.2884  -43.1354  -54.2035 H         1 UNK         0.0680 
     74 H74        33.2866  -42.7409  -53.1757 H         1 UNK         0.0650 
     75 H75        32.7332  -41.6411  -54.4154 H         1 UNK         0.0650 
     76 H76        31.6440  -43.3343  -51.6124 H         1 UNK         0.1397 
     77 H77        27.5190  -43.6968  -52.7317 H         1 UNK         0.1363 
     78 H78        30.4614  -42.6598  -55.6754 H         1 UNK         0.1355 
     79 H79        27.0172  -42.4263  -55.0835 H         1 UNK         0.0707 
     80 H80        28.2007  -42.7365  -56.3276 H         1 UNK         0.0707 
     81 H81        29.2365  -45.6346  -55.2395 H         1 UNK         0.1034 
     82 H82        28.1577  -46.8621  -55.8230 H         1 UNK         0.1034 
     83 H83        29.3969  -44.6754  -57.5447 H         1 UNK         0.0482 
     84 H84        29.7878  -47.6308  -59.1416 H         1 UNK         0.3460 
     85 H85        31.3749  -48.0096  -58.5267 H         1 UNK         0.3460 
     86 H86        27.2659  -46.5139  -58.1701 H         1 UNK         0.2989 
     87 H87        26.5153  -45.1658  -60.9966 H         1 UNK         0.0559 
     88 H88        28.3666  -47.4646  -61.8279 H         1 UNK         0.0848 
     89 H89        28.3372  -45.8488  -62.5194 H         1 UNK         0.0848 
     90 H90        26.9611  -46.9124  -62.7382 H         1 UNK         0.0848 
     91 H91        26.6199  -47.9984  -60.0353 H         1 UNK         0.3144 
     92 H92        23.4713  -47.7591  -58.5225 H         1 UNK         0.0727 
     93 H93        22.8236  -49.6749  -59.9585 H         1 UNK         0.0790 
     94 H94        24.1021  -49.2822  -61.1099 H         1 UNK         0.0790 
     95 H95        22.7510  -48.1822  -60.8778 H         1 UNK         0.0790 
     96 H96        25.1498  -50.0095  -58.9580 H         1 UNK         0.3215 
     97 H97        26.0685  -50.9027  -57.0232 H         1 UNK         0.0863 
     98 H98        28.5717  -50.7683  -57.0025 H         1 UNK         0.0808 
     99 H99        28.4958  -49.0169  -57.1858 H         1 UNK         0.0808 
    100 H100       27.9509  -50.0685  -58.4859 H         1 UNK         0.0808 
    101 H101       26.3847  -48.8173  -55.0439 H         1 UNK         0.3118 
    102 H102       25.6815  -49.8417  -52.8734 H         1 UNK         0.0546 
    103 H103       27.6378  -52.0552  -52.0616 H         1 UNK         0.0828 
    104 H104       25.9080  -52.2589  -52.3073 H         1 UNK         0.0828 
    105 H105       26.4894  -51.2417  -51.0002 H         1 UNK         0.0828 
    106 H106       28.4183  -49.7460  -51.9357 H         1 UNK         0.3005 
    107 H107       29.0518  -46.4221  -52.8878 H         1 UNK         0.1257 
    108 H108       28.2012  -47.3733  -50.1121 H         1 UNK         0.0775 
    109 H109       27.5452  -46.0085  -50.9699 H         1 UNK         0.0775 
    110 H110       28.1283  -43.7619  -50.3859 H         1 UNK         0.0840 
    111 H111       29.6894  -43.1481  -49.9176 H         1 UNK         0.0840 
    112 H112       30.8765  -47.6230  -52.7650 H         1 UNK         0.2987 
    113 H113       32.6348  -48.7450  -51.2603 H         1 UNK         0.0785 
    114 H114       33.2831  -51.0925  -50.7771 H         1 UNK         0.0798 
    115 H115       31.5991  -51.6047  -50.8923 H         1 UNK         0.0798 
    116 H116       32.1085  -50.5189  -49.6065 H         1 UNK         0.0798 
    117 H117       32.0924  -50.8760  -53.1905 H         1 UNK         0.3079 
    118 H118       33.1831  -50.5070  -55.3187 H         1 UNK         0.0794 
    119 H119       30.7067  -50.7218  -55.3375 H         1 UNK         0.0786 
    120 H120       31.2223  -50.2215  -56.9399 H         1 UNK         0.0786 
    121 H121       30.5197  -49.0462  -55.8294 H         1 UNK         0.0786 
    122 H122       32.8827  -47.6382  -56.0157 H         1 UNK         0.3032 
    123 H123       36.0477  -47.7283  -57.5974 H         1 UNK         0.1094 
    124 H124       34.9717  -46.1142  -59.1158 H         1 UNK         0.0794 
    125 H125       34.3808  -47.7262  -59.4828 H         1 UNK         0.0794 
    126 H126       33.3677  -46.6063  -58.5811 H         1 UNK         0.0794 
    127 H127       34.3825  -45.6119  -56.5724 H         1 UNK         0.3016 
@<TRIPOS>BOND
     1    1    2 1    
     2    1   67 1    
     3    1   68 1    
     4    1   69 1    
     5    2    3 2    
     6    2    4 am   BACKBONE|DICT|INTERRES
     7    4    5 1    
     8    4   70 1    
     9    5    6 1    
    10    5   65 1    
    11    5   71 1    
    12    6    7 1    
    13    6   72 1    
    14    6   73 1    
    15    7    8 1    
    16    8    9 1    
    17    8   74 1    
    18    8   75 1    
    19    9   10 ar   
    20    9   14 ar   
    21   10   11 ar   
    22   10   76 1    
    23   11   12 ar   
    24   11   48 1    
    25   12   13 ar   
    26   12   77 1    
    27   13   14 ar   
    28   13   15 1    
    29   14   78 1    
    30   15   16 1    
    31   15   79 1    
    32   15   80 1    
    33   16   17 1    
    34   17   18 1    
    35   17   81 1    
    36   17   82 1    
    37   18   19 1    
    38   18   22 1    
    39   18   83 1    
    40   19   20 am   BACKBONE|DICT|INTERRES
    41   19   21 2    
    42   20   84 1    
    43   20   85 1    
    44   22   23 am   BACKBONE|DICT|INTERRES
    45   22   86 1    
    46   23   24 2    
    47   23   25 1    
    48   25   26 1    
    49   25   27 1    
    50   25   87 1    
    51   26   88 1    
    52   26   89 1    
    53   26   90 1    
    54   27   28 am   BACKBONE|DICT|INTERRES
    55   27   91 1    
    56   28   29 2    
    57   28   30 1    
    58   30   31 1    
    59   30   32 1    
    60   30   92 1    
    61   31   93 1    
    62   31   94 1    
    63   31   95 1    
    64   32   33 am   BACKBONE|DICT|INTERRES
    65   32   96 1    
    66   33   34 2    
    67   33   35 1    
    68   35   36 1    
    69   35   37 1    
    70   35   97 1    
    71   36   98 1    
    72   36   99 1    
    73   36  100 1    
    74   37   38 am   BACKBONE|DICT|INTERRES
    75   37  101 1    
    76   38   39 2    
    77   38   40 1    
    78   40   41 1    
    79   40   42 1    
    80   40  102 1    
    81   41  103 1    
    82   41  104 1    
    83   41  105 1    
    84   42   43 am   BACKBONE|DICT|INTERRES
    85   42  106 1    
    86   43   44 2    
    87   43   45 1    
    88   45   46 1    
    89   45   49 1    
    90   45  107 1    
    91   46   47 1    
    92   46  108 1    
    93   46  109 1    
    94   47   48 1    
    95   48  110 1    
    96   48  111 1    
    97   49   50 am   BACKBONE|DICT|INTERRES
    98   49  112 1    
    99   50   51 2    
   100   50   52 1    
   101   52   53 1    
   102   52   54 1    
   103   52  113 1    
   104   53  114 1    
   105   53  115 1    
   106   53  116 1    
   107   54   55 am   BACKBONE|DICT|INTERRES
   108   54  117 1    
   109   55   56 2    
   110   55   57 1    
   111   57   58 1    
   112   57   59 1    
   113   57  118 1    
   114   58  119 1    
   115   58  120 1    
   116   58  121 1    
   117   59   60 am   BACKBONE|DICT|INTERRES
   118   59  122 1    
   119   60   61 2    
   120   60   62 1    
   121   62   63 1    
   122   62   64 1    
   123   62  123 1    
   124   63  124 1    
   125   63  125 1    
   126   63  126 1    
   127   64   65 am   BACKBONE|DICT|INTERRES
   128   64  127 1    
   129   65   66 2    
@<TRIPOS>SUBSTRUCTURE
     1 UNK         1 GROUP             0       ****    0 ROOT    
