@<TRIPOS>MOLECULE
3R134
127   129    1
SMALL
USER_CHARGES


@<TRIPOS>ATOM
      1 CA         28.3998  -48.1433  -51.4800 C.3       0 UNK        -0.1968 
      2 C          29.7241  -47.5238  -51.9007 C.2       0 UNK         0.4852 
      3 O          30.3244  -47.9835  -52.8694 O.2       0 UNK        -0.5359 
      4 N          30.1840  -46.5003  -51.1651 N.am      1 UNK        -0.4300 
      5 CA         31.4208  -45.7224  -51.3531 C.3       1 UNK         0.0863 
      6 C6         31.5049  -44.9708  -52.7080 C.3       11 UNK        -0.0953 
      7 S7         30.2049  -43.7016  -52.8856 S.3       11 UNK        -0.2369 
      8 C8         30.8885  -42.6781  -54.2308 C.3       11 UNK         0.0226 
      9 C9         30.9327  -43.4513  -55.5395 C.ar      11 UNK        -0.0699 
     10 C10        32.1043  -44.1024  -55.9347 C.ar      11 UNK        -0.0804 
     11 C11        32.1192  -44.9027  -57.0810 C.ar      11 UNK        -0.0871 
     12 C12        30.9603  -45.0161  -57.8562 C.ar      11 UNK        -0.1008 
     13 C13        29.7884  -44.3540  -57.4791 C.ar      11 UNK        -0.0735 
     14 C14        29.7849  -43.5618  -56.3279 C.ar      11 UNK        -0.0945 
     15 C15        28.5061  -44.5472  -58.2707 C.3       11 UNK         0.0169 
     16 S16        28.1893  -43.1472  -59.3848 S.3       11 UNK        -0.2669 
     17 C17        26.4897  -43.5357  -59.9287 C.3       11 UNK        -0.0850 
     18 CA         25.4325  -42.5648  -59.3399 C.3       10 UNK         0.0855 
     19 C          24.0232  -42.8987  -59.9034 C.2       10 UNK         0.5543 
     20 N          23.6115  -42.2379  -60.9769 N.am      10 UNK        -0.7343 
     21 O          23.3266  -43.7823  -59.4075 O.2       10 UNK        -0.5027 
     22 N          25.4756  -42.5427  -57.8690 N.am      10 UNK        -0.4495 
     23 C          24.7824  -41.7119  -57.0804 C.2       10 UNK         0.4903 
     24 O          24.0332  -40.8329  -57.5128 O.2       10 UNK        -0.4860 
     25 CA         24.9879  -41.8252  -55.5537 C.3       9 UNK         0.0227 
     26 CB         23.6423  -41.8445  -54.7965 C.3       9 UNK        -0.1964 
     27 N          25.8655  -42.9187  -55.1023 N.am      9 UNK        -0.4231 
     28 C          25.6327  -44.2383  -55.1570 C.2       9 UNK         0.5014 
     29 O          24.6319  -44.7488  -55.6659 O.2       9 UNK        -0.5270 
     30 CA         26.7027  -45.1341  -54.5195 C.3       8 UNK         0.0284 
     31 CB         26.6096  -45.0849  -52.9844 C.3       8 UNK        -0.1977 
     32 N          26.5102  -46.5106  -54.9725 N.am      8 UNK        -0.4342 
     33 C          27.4608  -47.2996  -55.4811 C.2       8 UNK         0.5039 
     34 O          28.6402  -46.9694  -55.6064 O.2       8 UNK        -0.5547 
     35 CA         27.0020  -48.6737  -55.9895 C.3       7 UNK         0.0281 
     36 CB         26.6037  -48.5861  -57.4724 C.3       7 UNK        -0.1963 
     37 N          28.0889  -49.6394  -55.8483 N.am      7 UNK        -0.4444 
     38 C          28.3243  -50.3895  -54.7677 C.2       7 UNK         0.5104 
     39 O          27.5486  -50.4693  -53.8141 O.2       7 UNK        -0.5100 
     40 CA         29.6373  -51.1984  -54.7336 C.3       6 UNK         0.0396 
     41 CB         29.4931  -52.5321  -55.4903 C.3       6 UNK        -0.1801 
     42 N          30.8350  -50.4642  -55.1660 N.am      6 UNK        -0.4747 
     43 C          31.1410  -49.9671  -56.3745 C.2       6 UNK         0.5012 
     44 O          30.4203  -50.0737  -57.3681 O.2       6 UNK        -0.5003 
     45 CA         32.4838  -49.2292  -56.4932 C.3       5 UNK         0.0782 
     46 C46        32.3987  -47.8342  -55.8320 C.3       11 UNK        -0.0868 
     47 S47        33.8966  -46.8291  -56.1178 S.3       11 UNK        -0.2515 
     48 C48        33.3671  -45.6957  -57.4491 C.3       11 UNK         0.0199 
     49 N          33.5544  -50.0508  -55.9262 N.am      5 UNK        -0.4607 
     50 C          34.2652  -50.9538  -56.6132 C.2       4 UNK         0.5031 
     51 O          34.1069  -51.1753  -57.8141 O.2       4 UNK        -0.5119 
     52 CA         35.3540  -51.7327  -55.8507 C.3       4 UNK         0.0263 
     53 CB         36.7343  -51.1062  -56.1087 C.3       4 UNK        -0.1967 
     54 N          35.1200  -51.7898  -54.4064 N.am      4 UNK        -0.4237 
     55 C          34.2173  -52.5820  -53.8110 C.2       3 UNK         0.4908 
     56 O          33.5403  -53.4199  -54.4075 O.2       3 UNK        -0.5102 
     57 CA         34.0193  -52.3923  -52.2940 C.3       3 UNK         0.0241 
     58 CB         34.9031  -53.3754  -51.5092 C.3       3 UNK        -0.1971 
     59 N          34.2697  -51.0236  -51.8181 N.am      3 UNK        -0.4139 
     60 C          33.5902  -49.9440  -52.2276 C.2       2 UNK         0.5016 
     61 O          32.7067  -49.9838  -53.0859 O.2       2 UNK        -0.5319 
     62 CA         34.0040  -48.5932  -51.6368 C.3       2 UNK         0.0286 
     63 CB         35.2325  -48.0339  -52.3796 C.3       2 UNK        -0.1963 
     64 N          32.8795  -47.6694  -51.7606 N.am      2 UNK        -0.4790 
     65 C          32.7064  -46.5340  -51.0785 C.2       1 UNK         0.5024 
     66 O          33.5119  -46.1181  -50.2442 O.2       1 UNK        -0.4888 
     67 H67        28.5450  -49.1903  -51.2153 H         1 UNK         0.0892 
     68 H68        27.6903  -48.1011  -52.3060 H         1 UNK         0.0892 
     69 H69        27.9582  -47.6316  -50.6253 H         1 UNK         0.0892 
     70 H70        29.6367  -46.2073  -50.3681 H         1 UNK         0.3107 
     71 H71        31.3900  -44.9602  -50.5725 H         1 UNK         0.0773 
     72 H72        31.4351  -45.6655  -53.5469 H         1 UNK         0.0680 
     73 H73        32.4717  -44.4728  -52.8032 H         1 UNK         0.0680 
     74 H74        30.2689  -41.7881  -54.3491 H         1 UNK         0.0650 
     75 H75        31.8834  -42.3252  -53.9550 H         1 UNK         0.0650 
     76 H76        32.9918  -44.0327  -55.3210 H         1 UNK         0.1397 
     77 H77        30.9577  -45.6471  -58.7344 H         1 UNK         0.1363 
     78 H78        28.8772  -43.0605  -56.0251 H         1 UNK         0.1355 
     79 H79        27.6719  -44.6675  -57.5787 H         1 UNK         0.0707 
     80 H80        28.5525  -45.4689  -58.8532 H         1 UNK         0.0707 
     81 H81        26.2443  -44.5699  -59.6776 H         1 UNK         0.1034 
     82 H82        26.4774  -43.4858  -61.0194 H         1 UNK         0.1034 
     83 H83        25.6911  -41.5558  -59.6687 H         1 UNK         0.0482 
     84 H84        24.1802  -41.5186  -61.3971 H         1 UNK         0.3460 
     85 H85        22.7072  -42.4528  -61.3681 H         1 UNK         0.3460 
     86 H86        26.0485  -43.2474  -57.4312 H         1 UNK         0.2989 
     87 H87        25.5037  -40.9079  -55.2648 H         1 UNK         0.0559 
     88 H88        23.7927  -41.8830  -53.7175 H         1 UNK         0.0848 
     89 H89        23.0277  -42.6993  -55.0813 H         1 UNK         0.0848 
     90 H90        23.0604  -40.9464  -55.0073 H         1 UNK         0.0848 
     91 H91        26.7223  -42.6138  -54.6602 H         1 UNK         0.3144 
     92 H92        27.6832  -44.7665  -54.8259 H         1 UNK         0.0727 
     93 H93        27.4175  -45.6536  -52.5278 H         1 UNK         0.0790 
     94 H94        25.6634  -45.4878  -52.6209 H         1 UNK         0.0790 
     95 H95        26.6963  -44.0632  -52.6125 H         1 UNK         0.0790 
     96 H96        25.5433  -46.8068  -55.0146 H         1 UNK         0.3215 
     97 H97        26.1379  -49.0046  -55.4088 H         1 UNK         0.0863 
     98 H98        26.2733  -49.5532  -57.8519 H         1 UNK         0.0808 
     99 H99        27.4354  -48.2486  -58.0930 H         1 UNK         0.0808 
    100 H100       25.7824  -47.8828  -57.6171 H         1 UNK         0.0808 
    101 H101       28.8192  -49.6128  -56.5550 H         1 UNK         0.3118 
    102 H102       29.8220  -51.4391  -53.6853 H         1 UNK         0.0546 
    103 H103       28.6634  -53.1167  -55.0910 H         1 UNK         0.0828 
    104 H104       30.3937  -53.1392  -55.3947 H         1 UNK         0.0828 
    105 H105       29.3006  -52.3815  -56.5528 H         1 UNK         0.0828 
    106 H106       31.4870  -50.2582  -54.4083 H         1 UNK         0.3005 
    107 H107       32.6722  -49.0785  -57.5589 H         1 UNK         0.1257 
    108 H108       32.2663  -47.9270  -54.7534 H         1 UNK         0.0775 
    109 H109       31.5153  -47.2988  -56.1828 H         1 UNK         0.0775 
    110 H110       34.1793  -45.0012  -57.6673 H         1 UNK         0.0840 
    111 H111       33.2059  -46.2762  -58.3588 H         1 UNK         0.0840 
    112 H112       33.6803  -49.9762  -54.9250 H         1 UNK         0.2987 
    113 H113       35.3633  -52.7527  -56.2416 H         1 UNK         0.0785 
    114 H114       36.7889  -50.0814  -55.7386 H         1 UNK         0.0798 
    115 H115       36.9562  -51.0783  -57.1766 H         1 UNK         0.0798 
    116 H116       37.5276  -51.6806  -55.6301 H         1 UNK         0.0798 
    117 H117       35.6437  -51.1453  -53.8328 H         1 UNK         0.3079 
    118 H118       32.9745  -52.6254  -52.0773 H         1 UNK         0.0794 
    119 H119       35.9646  -53.1734  -51.6587 H         1 UNK         0.0786 
    120 H120       34.7194  -54.4034  -51.8255 H         1 UNK         0.0786 
    121 H121       34.6983  -53.3274  -50.4395 H         1 UNK         0.0786 
    122 H122       34.9936  -50.9121  -51.1222 H         1 UNK         0.3032 
    123 H123       34.2372  -48.7298  -50.5784 H         1 UNK         0.1094 
    124 H124       35.0251  -47.8826  -53.4396 H         1 UNK         0.0794 
    125 H125       35.5502  -47.0776  -51.9640 H         1 UNK         0.0794 
    126 H126       36.0830  -48.7125  -52.3053 H         1 UNK         0.0794 
    127 H127       32.1276  -47.9797  -52.3793 H         1 UNK         0.3016 
@<TRIPOS>BOND
     1    1    2 1    
     2    1   67 1    
     3    1   68 1    
     4    1   69 1    
     5    2    3 2    
     6    2    4 am   BACKBONE|DICT|INTERRES
     7    4    5 1    
     8    4   70 1    
     9    5    6 1    
    10    5   65 1    
    11    5   71 1    
    12    6    7 1    
    13    6   72 1    
    14    6   73 1    
    15    7    8 1    
    16    8    9 1    
    17    8   74 1    
    18    8   75 1    
    19    9   10 ar   
    20    9   14 ar   
    21   10   11 ar   
    22   10   76 1    
    23   11   12 ar   
    24   11   48 1    
    25   12   13 ar   
    26   12   77 1    
    27   13   14 ar   
    28   13   15 1    
    29   14   78 1    
    30   15   16 1    
    31   15   79 1    
    32   15   80 1    
    33   16   17 1    
    34   17   18 1    
    35   17   81 1    
    36   17   82 1    
    37   18   19 1    
    38   18   22 1    
    39   18   83 1    
    40   19   20 am   BACKBONE|DICT|INTERRES
    41   19   21 2    
    42   20   84 1    
    43   20   85 1    
    44   22   23 am   BACKBONE|DICT|INTERRES
    45   22   86 1    
    46   23   24 2    
    47   23   25 1    
    48   25   26 1    
    49   25   27 1    
    50   25   87 1    
    51   26   88 1    
    52   26   89 1    
    53   26   90 1    
    54   27   28 am   BACKBONE|DICT|INTERRES
    55   27   91 1    
    56   28   29 2    
    57   28   30 1    
    58   30   31 1    
    59   30   32 1    
    60   30   92 1    
    61   31   93 1    
    62   31   94 1    
    63   31   95 1    
    64   32   33 am   BACKBONE|DICT|INTERRES
    65   32   96 1    
    66   33   34 2    
    67   33   35 1    
    68   35   36 1    
    69   35   37 1    
    70   35   97 1    
    71   36   98 1    
    72   36   99 1    
    73   36  100 1    
    74   37   38 am   BACKBONE|DICT|INTERRES
    75   37  101 1    
    76   38   39 2    
    77   38   40 1    
    78   40   41 1    
    79   40   42 1    
    80   40  102 1    
    81   41  103 1    
    82   41  104 1    
    83   41  105 1    
    84   42   43 am   BACKBONE|DICT|INTERRES
    85   42  106 1    
    86   43   44 2    
    87   43   45 1    
    88   45   46 1    
    89   45   49 1    
    90   45  107 1    
    91   46   47 1    
    92   46  108 1    
    93   46  109 1    
    94   47   48 1    
    95   48  110 1    
    96   48  111 1    
    97   49   50 am   BACKBONE|DICT|INTERRES
    98   49  112 1    
    99   50   51 2    
   100   50   52 1    
   101   52   53 1    
   102   52   54 1    
   103   52  113 1    
   104   53  114 1    
   105   53  115 1    
   106   53  116 1    
   107   54   55 am   BACKBONE|DICT|INTERRES
   108   54  117 1    
   109   55   56 2    
   110   55   57 1    
   111   57   58 1    
   112   57   59 1    
   113   57  118 1    
   114   58  119 1    
   115   58  120 1    
   116   58  121 1    
   117   59   60 am   BACKBONE|DICT|INTERRES
   118   59  122 1    
   119   60   61 2    
   120   60   62 1    
   121   62   63 1    
   122   62   64 1    
   123   62  123 1    
   124   63  124 1    
   125   63  125 1    
   126   63  126 1    
   127   64   65 am   BACKBONE|DICT|INTERRES
   128   64  127 1    
   129   65   66 2    
@<TRIPOS>SUBSTRUCTURE
     1 UNK         1 GROUP             0       ****    0 ROOT    
