@<TRIPOS>MOLECULE
3R134
127   129    1
SMALL
USER_CHARGES


@<TRIPOS>ATOM
      1 CA         34.1623  -50.6122  -58.3947 C.3       0 UNK        -0.1968 
      2 C          33.7204  -50.0646  -57.0467 C.2       0 UNK         0.4852 
      3 O          33.8264  -50.7611  -56.0360 O.2       0 UNK        -0.5359 
      4 N          33.2468  -48.8110  -57.0102 N.am      1 UNK        -0.4300 
      5 CA         32.7160  -48.1485  -55.8105 C.3       1 UNK         0.0863 
      6 C6         31.8413  -46.9223  -56.1444 C.3       11 UNK        -0.0953 
      7 S7         32.6650  -45.6245  -57.1259 S.3       11 UNK        -0.2369 
      8 C8         33.0670  -44.3769  -55.8575 C.3       11 UNK         0.0226 
      9 C9         31.8379  -43.7876  -55.1723 C.ar      11 UNK        -0.0699 
     10 C10        31.6890  -43.9005  -53.7862 C.ar      11 UNK        -0.0804 
     11 C11        30.5883  -43.3304  -53.1374 C.ar      11 UNK        -0.0871 
     12 C12        29.6275  -42.6486  -53.8917 C.ar      11 UNK        -0.1008 
     13 C13        29.7587  -42.5299  -55.2796 C.ar      11 UNK        -0.0735 
     14 C14        30.8721  -43.0957  -55.9115 C.ar      11 UNK        -0.0945 
     15 C15        28.7186  -41.7618  -56.0904 C.3       11 UNK         0.0169 
     16 S16        27.0556  -42.4936  -55.9496 S.3       11 UNK        -0.2669 
     17 C17        26.1075  -41.4717  -57.1260 C.3       11 UNK        -0.0850 
     18 CA         24.8407  -42.2050  -57.6621 C.3       10 UNK         0.0855 
     19 C          23.8624  -41.2483  -58.4137 C.2       10 UNK         0.5543 
     20 N          23.0931  -41.7240  -59.3855 N.am      10 UNK        -0.7343 
     21 O          23.7710  -40.0653  -58.0940 O.2       10 UNK        -0.5027 
     22 N          25.1507  -43.4602  -58.3781 N.am      10 UNK        -0.4495 
     23 C          25.8054  -43.5666  -59.5421 C.2       10 UNK         0.4903 
     24 O          26.2738  -42.6106  -60.1622 O.2       10 UNK        -0.4860 
     25 CA         25.9978  -44.9943  -60.0777 C.3       9 UNK         0.0227 
     26 CB         26.3207  -45.0212  -61.5837 C.3       9 UNK        -0.1964 
     27 N          27.0966  -45.6131  -59.3420 N.am      9 UNK        -0.4231 
     28 C          26.9576  -46.4432  -58.3027 C.2       9 UNK         0.5014 
     29 O          25.8763  -46.8887  -57.9094 O.2       9 UNK        -0.5270 
     30 CA         28.2491  -46.7411  -57.5286 C.3       8 UNK         0.0284 
     31 CB         28.5226  -45.5844  -56.5593 C.3       8 UNK        -0.1977 
     32 N          28.1792  -47.9930  -56.7736 N.am      8 UNK        -0.4342 
     33 C          28.3425  -49.2082  -57.3167 C.2       8 UNK         0.5039 
     34 O          28.5475  -49.3849  -58.5190 O.2       8 UNK        -0.5547 
     35 CA         28.3170  -50.4389  -56.3869 C.3       7 UNK         0.0281 
     36 CB         29.6862  -51.1422  -56.3819 C.3       7 UNK        -0.1963 
     37 N          27.9481  -50.1202  -55.0060 N.am      7 UNK        -0.4444 
     38 C          26.6866  -50.0179  -54.5612 C.2       7 UNK         0.5104 
     39 O          25.6977  -50.2471  -55.2578 O.2       7 UNK        -0.5100 
     40 CA         26.4818  -49.5711  -53.0980 C.3       6 UNK         0.0396 
     41 CB         26.2082  -50.7892  -52.2015 C.3       6 UNK        -0.1801 
     42 N          27.6054  -48.8113  -52.5404 N.am      6 UNK        -0.4747 
     43 C          28.0714  -47.6492  -53.0227 C.2       6 UNK         0.5012 
     44 O          27.5370  -47.0494  -53.9526 O.2       6 UNK        -0.5003 
     45 CA         29.3776  -47.0922  -52.4164 C.3       5 UNK         0.0782 
     46 C46        29.0798  -45.8636  -51.5244 C.3       11 UNK        -0.0868 
     47 S47        30.6089  -45.0680  -50.9276 S.3       11 UNK        -0.2515 
     48 C48        30.4648  -43.3858  -51.6175 C.3       11 UNK         0.0199 
     49 N          30.1741  -48.1101  -51.7112 N.am      5 UNK        -0.4607 
     50 C          30.7228  -49.1898  -52.2809 C.2       4 UNK         0.5031 
     51 O          30.5591  -49.4998  -53.4628 O.2       4 UNK        -0.5119 
     52 CA         31.5271  -50.1170  -51.3683 C.3       4 UNK         0.0263 
     53 CB         30.6450  -51.2872  -50.8903 C.3       4 UNK        -0.1967 
     54 N          32.6817  -50.6075  -52.1149 N.am      4 UNK        -0.4237 
     55 C          33.7565  -51.2069  -51.5869 C.2       3 UNK         0.4908 
     56 O          33.8839  -51.4629  -50.3889 O.2       3 UNK        -0.5102 
     57 CA         34.8944  -51.5609  -52.5580 C.3       3 UNK         0.0241 
     58 CB         34.5227  -52.7776  -53.4219 C.3       3 UNK        -0.1971 
     59 N          35.2468  -50.4256  -53.4139 N.am      3 UNK        -0.4139 
     60 C          35.9332  -49.3501  -52.9903 C.2       2 UNK         0.5016 
     61 O          36.4217  -49.2532  -51.8638 O.2       2 UNK        -0.5319 
     62 CA         36.1035  -48.1744  -53.9743 C.3       2 UNK         0.0286 
     63 CB         37.4633  -48.2573  -54.6861 C.3       2 UNK        -0.1963 
     64 N          35.0395  -48.1121  -54.9771 N.am      2 UNK        -0.4790 
     65 C          33.7524  -47.8575  -54.7031 C.2       1 UNK         0.5024 
     66 O          33.3652  -47.4579  -53.6049 O.2       1 UNK        -0.4888 
     67 H67        35.2139  -50.8950  -58.3583 H         1 UNK         0.0892 
     68 H68        33.5795  -51.4978  -58.6462 H         1 UNK         0.0892 
     69 H69        34.0333  -49.8825  -59.1938 H         1 UNK         0.0892 
     70 H70        33.2078  -48.2629  -57.8586 H         1 UNK         0.3107 
     71 H71        32.0438  -48.8758  -55.3589 H         1 UNK         0.0773 
     72 H72        31.4218  -46.4962  -55.2329 H         1 UNK         0.0680 
     73 H73        30.9868  -47.2639  -56.7270 H         1 UNK         0.0680 
     74 H74        33.6241  -43.5679  -56.3313 H         1 UNK         0.0650 
     75 H75        33.7428  -44.8241  -55.1271 H         1 UNK         0.0650 
     76 H76        32.4389  -44.4210  -53.2056 H         1 UNK         0.1397 
     77 H77        28.7768  -42.1956  -53.4007 H         1 UNK         0.1363 
     78 H78        30.9918  -43.0005  -56.9820 H         1 UNK         0.1355 
     79 H79        28.6870  -40.7275  -55.7452 H         1 UNK         0.0707 
     80 H80        29.0033  -41.7315  -57.1434 H         1 UNK         0.0707 
     81 H81        25.8327  -40.5547  -56.6017 H         1 UNK         0.1034 
     82 H82        26.7486  -41.1649  -57.9537 H         1 UNK         0.1034 
     83 H83        24.2698  -42.5185  -56.7874 H         1 UNK         0.0482 
     84 H84        23.1450  -42.6948  -59.6490 H         1 UNK         0.3460 
     85 H85        22.4555  -41.1041  -59.8599 H         1 UNK         0.3460 
     86 H86        24.8259  -44.3073  -57.9329 H         1 UNK         0.2989 
     87 H87        25.0681  -45.5467  -59.9253 H         1 UNK         0.0559 
     88 H88        27.2514  -44.5007  -61.8131 H         1 UNK         0.0848 
     89 H89        25.5284  -44.5415  -62.1599 H         1 UNK         0.0848 
     90 H90        26.4124  -46.0441  -61.9492 H         1 UNK         0.0848 
     91 H91        28.0198  -45.2610  -59.5543 H         1 UNK         0.3144 
     92 H92        29.0801  -46.8089  -58.2342 H         1 UNK         0.0727 
     93 H93        28.7751  -44.6775  -57.1078 H         1 UNK         0.0790 
     94 H94        29.3439  -45.7890  -55.8776 H         1 UNK         0.0790 
     95 H95        27.6479  -45.3609  -55.9479 H         1 UNK         0.0790 
     96 H96        27.9355  -47.9108  -55.7927 H         1 UNK         0.3215 
     97 H97        27.5844  -51.1363  -56.7991 H         1 UNK         0.0863 
     98 H98        30.4746  -50.4892  -56.0092 H         1 UNK         0.0808 
     99 H99        29.9720  -51.4530  -57.3876 H         1 UNK         0.0808 
    100 H100       29.6719  -52.0370  -55.7595 H         1 UNK         0.0808 
    101 H101       28.7130  -49.9140  -54.3708 H         1 UNK         0.3118 
    102 H102       25.6029  -48.9237  -53.0756 H         1 UNK         0.0546 
    103 H103       27.0648  -51.4634  -52.1635 H         1 UNK         0.0828 
    104 H104       25.3582  -51.3638  -52.5725 H         1 UNK         0.0828 
    105 H105       25.9706  -50.4876  -51.1812 H         1 UNK         0.0828 
    106 H106       28.1066  -49.2375  -51.7748 H         1 UNK         0.3005 
    107 H107       29.9784  -46.7499  -53.2622 H         1 UNK         0.1257 
    108 H108       28.4819  -46.1520  -50.6578 H         1 UNK         0.0775 
    109 H109       28.4863  -45.1283  -52.0722 H         1 UNK         0.0775 
    110 H110       29.5215  -42.9495  -51.2850 H         1 UNK         0.0840 
    111 H111       31.2528  -42.7671  -51.1862 H         1 UNK         0.0840 
    112 H112       30.3536  -47.9241  -50.7349 H         1 UNK         0.2987 
    113 H113       31.8840  -49.5485  -50.5067 H         1 UNK         0.0785 
    114 H114       29.7649  -50.9237  -50.3584 H         1 UNK         0.0798 
    115 H115       31.1828  -51.9432  -50.2061 H         1 UNK         0.0798 
    116 H116       30.2949  -51.8930  -51.7273 H         1 UNK         0.0798 
    117 H117       32.6462  -50.4232  -53.1094 H         1 UNK         0.3079 
    118 H118       35.7713  -51.8286  -51.9641 H         1 UNK         0.0794 
    119 H119       34.3013  -53.6444  -52.7977 H         1 UNK         0.0786 
    120 H120       35.3411  -53.0565  -54.0858 H         1 UNK         0.0786 
    121 H121       33.6434  -52.5879  -54.0386 H         1 UNK         0.0786 
    122 H122       34.8727  -50.4355  -54.3589 H         1 UNK         0.3032 
    123 H123       36.0737  -47.2522  -53.3891 H         1 UNK         0.1094 
    124 H124       38.2803  -48.2783  -53.9634 H         1 UNK         0.0794 
    125 H125       37.5460  -49.1570  -55.2973 H         1 UNK         0.0794 
    126 H126       37.6269  -47.3944  -55.3320 H         1 UNK         0.0794 
    127 H127       35.2693  -48.4282  -55.9081 H         1 UNK         0.3016 
@<TRIPOS>BOND
     1    1    2 1    
     2    1   67 1    
     3    1   68 1    
     4    1   69 1    
     5    2    3 2    
     6    2    4 am   BACKBONE|DICT|INTERRES
     7    4    5 1    
     8    4   70 1    
     9    5    6 1    
    10    5   65 1    
    11    5   71 1    
    12    6    7 1    
    13    6   72 1    
    14    6   73 1    
    15    7    8 1    
    16    8    9 1    
    17    8   74 1    
    18    8   75 1    
    19    9   10 ar   
    20    9   14 ar   
    21   10   11 ar   
    22   10   76 1    
    23   11   12 ar   
    24   11   48 1    
    25   12   13 ar   
    26   12   77 1    
    27   13   14 ar   
    28   13   15 1    
    29   14   78 1    
    30   15   16 1    
    31   15   79 1    
    32   15   80 1    
    33   16   17 1    
    34   17   18 1    
    35   17   81 1    
    36   17   82 1    
    37   18   19 1    
    38   18   22 1    
    39   18   83 1    
    40   19   20 am   BACKBONE|DICT|INTERRES
    41   19   21 2    
    42   20   84 1    
    43   20   85 1    
    44   22   23 am   BACKBONE|DICT|INTERRES
    45   22   86 1    
    46   23   24 2    
    47   23   25 1    
    48   25   26 1    
    49   25   27 1    
    50   25   87 1    
    51   26   88 1    
    52   26   89 1    
    53   26   90 1    
    54   27   28 am   BACKBONE|DICT|INTERRES
    55   27   91 1    
    56   28   29 2    
    57   28   30 1    
    58   30   31 1    
    59   30   32 1    
    60   30   92 1    
    61   31   93 1    
    62   31   94 1    
    63   31   95 1    
    64   32   33 am   BACKBONE|DICT|INTERRES
    65   32   96 1    
    66   33   34 2    
    67   33   35 1    
    68   35   36 1    
    69   35   37 1    
    70   35   97 1    
    71   36   98 1    
    72   36   99 1    
    73   36  100 1    
    74   37   38 am   BACKBONE|DICT|INTERRES
    75   37  101 1    
    76   38   39 2    
    77   38   40 1    
    78   40   41 1    
    79   40   42 1    
    80   40  102 1    
    81   41  103 1    
    82   41  104 1    
    83   41  105 1    
    84   42   43 am   BACKBONE|DICT|INTERRES
    85   42  106 1    
    86   43   44 2    
    87   43   45 1    
    88   45   46 1    
    89   45   49 1    
    90   45  107 1    
    91   46   47 1    
    92   46  108 1    
    93   46  109 1    
    94   47   48 1    
    95   48  110 1    
    96   48  111 1    
    97   49   50 am   BACKBONE|DICT|INTERRES
    98   49  112 1    
    99   50   51 2    
   100   50   52 1    
   101   52   53 1    
   102   52   54 1    
   103   52  113 1    
   104   53  114 1    
   105   53  115 1    
   106   53  116 1    
   107   54   55 am   BACKBONE|DICT|INTERRES
   108   54  117 1    
   109   55   56 2    
   110   55   57 1    
   111   57   58 1    
   112   57   59 1    
   113   57  118 1    
   114   58  119 1    
   115   58  120 1    
   116   58  121 1    
   117   59   60 am   BACKBONE|DICT|INTERRES
   118   59  122 1    
   119   60   61 2    
   120   60   62 1    
   121   62   63 1    
   122   62   64 1    
   123   62  123 1    
   124   63  124 1    
   125   63  125 1    
   126   63  126 1    
   127   64   65 am   BACKBONE|DICT|INTERRES
   128   64  127 1    
   129   65   66 2    
@<TRIPOS>SUBSTRUCTURE
     1 UNK         1 GROUP             0       ****    0 ROOT    
