@<TRIPOS>MOLECULE
3R134
127   129    1
SMALL
USER_CHARGES


@<TRIPOS>ATOM
      1 CA         32.9429  -46.7222  -50.0733 C.3       0 UNK        -0.1968 
      2 C          34.0992  -46.0940  -50.8356 C.2       0 UNK         0.4852 
      3 O          34.7392  -45.1710  -50.3288 O.2       0 UNK        -0.5359 
      4 N          34.3684  -46.5963  -52.0429 N.am      1 UNK        -0.4300 
      5 CA         35.4739  -46.1967  -52.9111 C.3       1 UNK         0.0863 
      6 C6         34.9992  -45.2865  -54.0793 C.3       11 UNK        -0.0953 
      7 S7         33.6918  -46.0057  -55.1412 S.3       11 UNK        -0.2369 
      8 C8         32.9928  -44.5013  -55.8939 C.3       11 UNK         0.0226 
      9 C9         31.6764  -44.0471  -55.2675 C.ar      11 UNK        -0.0699 
     10 C10        31.4959  -43.9975  -53.8789 C.ar      11 UNK        -0.0804 
     11 C11        30.2907  -43.5409  -53.3338 C.ar      11 UNK        -0.0871 
     12 C12        29.2635  -43.1273  -54.1862 C.ar      11 UNK        -0.1008 
     13 C13        29.4279  -43.1727  -55.5732 C.ar      11 UNK        -0.0735 
     14 C14        30.6369  -43.6283  -56.1043 C.ar      11 UNK        -0.0945 
     15 C15        28.3186  -42.6933  -56.4990 C.3       11 UNK         0.0169 
     16 S16        26.7745  -43.6222  -56.2551 S.3       11 UNK        -0.2669 
     17 C17        25.7140  -42.8549  -57.5271 C.3       11 UNK        -0.0850 
     18 CA         25.0283  -43.9012  -58.4520 C.3       10 UNK         0.0855 
     19 C          24.0043  -43.2502  -59.4321 C.2       10 UNK         0.5543 
     20 N          23.8081  -43.7831  -60.6322 N.am      10 UNK        -0.7343 
     21 O          23.3524  -42.2652  -59.0927 O.2       10 UNK        -0.5027 
     22 N          25.9738  -44.8399  -59.0841 N.am      10 UNK        -0.4495 
     23 C          26.9501  -44.5463  -59.9494 C.2       10 UNK         0.4903 
     24 O          27.2317  -43.4013  -60.3068 O.2       10 UNK        -0.4860 
     25 CA         27.7302  -45.7499  -60.5202 C.3       9 UNK         0.0227 
     26 CB         28.6632  -45.3479  -61.6784 C.3       9 UNK        -0.1964 
     27 N          28.5154  -46.4689  -59.5113 N.am      9 UNK        -0.4231 
     28 C          28.0295  -47.2485  -58.5354 C.2       9 UNK         0.5014 
     29 O          26.8232  -47.4199  -58.3352 O.2       9 UNK        -0.5270 
     30 CA         29.0846  -47.9376  -57.6457 C.3       8 UNK         0.0284 
     31 CB         29.7996  -46.9122  -56.7494 C.3       8 UNK        -0.1977 
     32 N          28.5252  -48.9839  -56.7899 N.am      8 UNK        -0.4342 
     33 C          27.9634  -50.1298  -57.1969 C.2       8 UNK         0.5039 
     34 O          27.9149  -50.4943  -58.3732 O.2       8 UNK        -0.5547 
     35 CA         27.3633  -51.0331  -56.1060 C.3       7 UNK         0.0281 
     36 CB         28.3910  -52.0850  -55.6550 C.3       7 UNK        -0.1963 
     37 N          26.9185  -50.2650  -54.9389 N.am      7 UNK        -0.4444 
     38 C          25.6745  -49.8005  -54.7558 C.2       7 UNK         0.5104 
     39 O          24.7467  -50.0063  -55.5390 O.2       7 UNK        -0.5100 
     40 CA         25.3988  -48.9896  -53.4728 C.3       6 UNK         0.0396 
     41 CB         24.7677  -49.8914  -52.3998 C.3       6 UNK        -0.1801 
     42 N          26.5943  -48.3509  -52.9154 N.am      6 UNK        -0.4747 
     43 C          27.1757  -47.2502  -53.4165 C.2       6 UNK         0.5012 
     44 O          26.7121  -46.6099  -54.3574 O.2       6 UNK        -0.5003 
     45 CA         28.5199  -46.8152  -52.7885 C.3       5 UNK         0.0782 
     46 C46        28.3083  -45.6714  -51.7667 C.3       11 UNK        -0.0868 
     47 S47        29.8851  -45.0896  -51.0522 S.3       11 UNK        -0.2515 
     48 C48        30.1071  -43.4565  -51.8248 C.3       11 UNK         0.0199 
     49 N          29.2817  -47.9365  -52.2130 N.am      5 UNK        -0.4607 
     50 C          29.7353  -48.9802  -52.9144 C.2       4 UNK         0.5031 
     51 O          29.4604  -49.1685  -54.1001 O.2       4 UNK        -0.5119 
     52 CA         30.5860  -50.0192  -52.1677 C.3       4 UNK         0.0263 
     53 CB         29.6930  -51.1500  -51.6323 C.3       4 UNK        -0.1967 
     54 N          31.5955  -50.5851  -53.0655 N.am      4 UNK        -0.4237 
     55 C          32.6287  -49.8845  -53.5474 C.2       3 UNK         0.4908 
     56 O          32.9394  -48.7617  -53.1368 O.2       3 UNK        -0.5102 
     57 CA         33.4215  -50.5312  -54.6930 C.3       3 UNK         0.0241 
     58 CB         32.5603  -50.6385  -55.9656 C.3       3 UNK        -0.1971 
     59 N          34.5740  -49.6848  -54.9749 N.am      3 UNK        -0.4139 
     60 C          35.8429  -50.0770  -55.1295 C.2       2 UNK         0.5016 
     61 O          36.1976  -51.2545  -55.1982 O.2       2 UNK        -0.5319 
     62 CA         36.9027  -48.9576  -55.2049 C.3       2 UNK         0.0286 
     63 CB         37.3318  -48.7183  -56.6615 C.3       2 UNK        -0.1963 
     64 N          36.4304  -47.6911  -54.6305 N.am      2 UNK        -0.4790 
     65 C          36.2242  -47.4799  -53.3226 C.2       1 UNK         0.5024 
     66 O          36.5792  -48.2763  -52.4507 O.2       1 UNK        -0.4888 
     67 H67        33.3193  -47.4320  -49.3376 H         1 UNK         0.0892 
     68 H68        32.3747  -45.9553  -49.5478 H         1 UNK         0.0892 
     69 H69        32.2622  -47.2481  -50.7428 H         1 UNK         0.0892 
     70 H70        33.8153  -47.3774  -52.3986 H         1 UNK         0.3107 
     71 H71        36.2017  -45.6246  -52.3320 H         1 UNK         0.0773 
     72 H72        35.8423  -44.9926  -54.7069 H         1 UNK         0.0680 
     73 H73        34.6218  -44.3545  -53.6564 H         1 UNK         0.0680 
     74 H74        32.8479  -44.7109  -56.9548 H         1 UNK         0.0650 
     75 H75        33.7135  -43.6843  -55.8440 H         1 UNK         0.0650 
     76 H76        32.2915  -44.3107  -53.2177 H         1 UNK         0.1397 
     77 H77        28.3318  -42.7644  -53.7738 H         1 UNK         0.1363 
     78 H78        30.7725  -43.6483  -57.1770 H         1 UNK         0.1355 
     79 H79        28.1353  -41.6336  -56.3163 H         1 UNK         0.0707 
     80 H80        28.6214  -42.7846  -57.5437 H         1 UNK         0.0707 
     81 H81        24.9630  -42.2605  -57.0036 H         1 UNK         0.1034 
     82 H82        26.2908  -42.1454  -58.1225 H         1 UNK         0.1034 
     83 H83        24.4125  -44.5288  -57.8069 H         1 UNK         0.0482 
     84 H84        24.3237  -44.6003  -60.9166 H         1 UNK         0.3460 
     85 H85        23.1371  -43.3640  -61.2567 H         1 UNK         0.3460 
     86 H86        25.8925  -45.8125  -58.7986 H         1 UNK         0.2989 
     87 H87        26.9905  -46.4438  -60.9252 H         1 UNK         0.0559 
     88 H88        29.4513  -44.6701  -61.3476 H         1 UNK         0.0848 
     89 H89        28.1085  -44.8400  -62.4687 H         1 UNK         0.0848 
     90 H90        29.1368  -46.2198  -62.1300 H         1 UNK         0.0848 
     91 H91        29.5173  -46.3627  -59.5775 H         1 UNK         0.3144 
     92 H92        29.8223  -48.4096  -58.2977 H         1 UNK         0.0727 
     93 H93        30.3531  -46.1882  -57.3467 H         1 UNK         0.0790 
     94 H94        30.5196  -47.3896  -56.0835 H         1 UNK         0.0790 
     95 H95        29.0917  -46.3550  -56.1336 H         1 UNK         0.0790 
     96 H96        28.5989  -48.8289  -55.7900 H         1 UNK         0.3215 
     97 H97        26.5126  -51.5595  -56.5446 H         1 UNK         0.0863 
     98 H98        29.2759  -51.6249  -55.2151 H         1 UNK         0.0808 
     99 H99        28.7246  -52.6898  -56.4994 H         1 UNK         0.0808 
    100 H100       27.9645  -52.7652  -54.9178 H         1 UNK         0.0808 
    101 H101       27.6420  -49.9902  -54.2847 H         1 UNK         0.3118 
    102 H102       24.6768  -48.2101  -53.7258 H         1 UNK         0.0546 
    103 H103       25.4427  -50.6921  -52.0950 H         1 UNK         0.0828 
    104 H104       23.8552  -50.3596  -52.7717 H         1 UNK         0.0828 
    105 H105       24.4970  -49.3218  -51.5106 H         1 UNK         0.0828 
    106 H106       27.0363  -48.8089  -52.1314 H         1 UNK         0.3005 
    107 H107       29.1218  -46.4150  -53.6085 H         1 UNK         0.1257 
    108 H108       27.6702  -46.0053  -50.9464 H         1 UNK         0.0775 
    109 H109       27.7892  -44.8308  -52.2309 H         1 UNK         0.0775 
    110 H110       29.2577  -42.8207  -51.5698 H         1 UNK         0.0840 
    111 H111       30.9836  -42.9787  -51.3848 H         1 UNK         0.0840 
    112 H112       29.5355  -47.8417  -51.2403 H         1 UNK         0.2987 
    113 H113       31.0926  -49.5357  -51.3296 H         1 UNK         0.0785 
    114 H114       28.9480  -50.7645  -50.9350 H         1 UNK         0.0798 
    115 H115       30.2788  -51.8967  -51.0958 H         1 UNK         0.0798 
    116 H116       29.1564  -51.6584  -52.4348 H         1 UNK         0.0798 
    117 H117       31.3894  -51.4881  -53.4658 H         1 UNK         0.3079 
    118 H118       33.7453  -51.5240  -54.3736 H         1 UNK         0.0794 
    119 H119       31.7156  -51.3119  -55.8193 H         1 UNK         0.0786 
    120 H120       33.1396  -51.0275  -56.8032 H         1 UNK         0.0786 
    121 H121       32.1556  -49.6689  -56.2609 H         1 UNK         0.0786 
    122 H122       34.3946  -48.6958  -54.8574 H         1 UNK         0.3032 
    123 H123       37.7735  -49.2937  -54.6372 H         1 UNK         0.1094 
    124 H124       37.7135  -49.6361  -57.1111 H         1 UNK         0.0794 
    125 H125       36.4991  -48.3757  -57.2773 H         1 UNK         0.0794 
    126 H126       38.1260  -47.9742  -56.7244 H         1 UNK         0.0794 
    127 H127       36.0977  -46.9925  -55.2817 H         1 UNK         0.3016 
@<TRIPOS>BOND
     1    1    2 1    
     2    1   67 1    
     3    1   68 1    
     4    1   69 1    
     5    2    3 2    
     6    2    4 am   BACKBONE|DICT|INTERRES
     7    4    5 1    
     8    4   70 1    
     9    5    6 1    
    10    5   65 1    
    11    5   71 1    
    12    6    7 1    
    13    6   72 1    
    14    6   73 1    
    15    7    8 1    
    16    8    9 1    
    17    8   74 1    
    18    8   75 1    
    19    9   10 ar   
    20    9   14 ar   
    21   10   11 ar   
    22   10   76 1    
    23   11   12 ar   
    24   11   48 1    
    25   12   13 ar   
    26   12   77 1    
    27   13   14 ar   
    28   13   15 1    
    29   14   78 1    
    30   15   16 1    
    31   15   79 1    
    32   15   80 1    
    33   16   17 1    
    34   17   18 1    
    35   17   81 1    
    36   17   82 1    
    37   18   19 1    
    38   18   22 1    
    39   18   83 1    
    40   19   20 am   BACKBONE|DICT|INTERRES
    41   19   21 2    
    42   20   84 1    
    43   20   85 1    
    44   22   23 am   BACKBONE|DICT|INTERRES
    45   22   86 1    
    46   23   24 2    
    47   23   25 1    
    48   25   26 1    
    49   25   27 1    
    50   25   87 1    
    51   26   88 1    
    52   26   89 1    
    53   26   90 1    
    54   27   28 am   BACKBONE|DICT|INTERRES
    55   27   91 1    
    56   28   29 2    
    57   28   30 1    
    58   30   31 1    
    59   30   32 1    
    60   30   92 1    
    61   31   93 1    
    62   31   94 1    
    63   31   95 1    
    64   32   33 am   BACKBONE|DICT|INTERRES
    65   32   96 1    
    66   33   34 2    
    67   33   35 1    
    68   35   36 1    
    69   35   37 1    
    70   35   97 1    
    71   36   98 1    
    72   36   99 1    
    73   36  100 1    
    74   37   38 am   BACKBONE|DICT|INTERRES
    75   37  101 1    
    76   38   39 2    
    77   38   40 1    
    78   40   41 1    
    79   40   42 1    
    80   40  102 1    
    81   41  103 1    
    82   41  104 1    
    83   41  105 1    
    84   42   43 am   BACKBONE|DICT|INTERRES
    85   42  106 1    
    86   43   44 2    
    87   43   45 1    
    88   45   46 1    
    89   45   49 1    
    90   45  107 1    
    91   46   47 1    
    92   46  108 1    
    93   46  109 1    
    94   47   48 1    
    95   48  110 1    
    96   48  111 1    
    97   49   50 am   BACKBONE|DICT|INTERRES
    98   49  112 1    
    99   50   51 2    
   100   50   52 1    
   101   52   53 1    
   102   52   54 1    
   103   52  113 1    
   104   53  114 1    
   105   53  115 1    
   106   53  116 1    
   107   54   55 am   BACKBONE|DICT|INTERRES
   108   54  117 1    
   109   55   56 2    
   110   55   57 1    
   111   57   58 1    
   112   57   59 1    
   113   57  118 1    
   114   58  119 1    
   115   58  120 1    
   116   58  121 1    
   117   59   60 am   BACKBONE|DICT|INTERRES
   118   59  122 1    
   119   60   61 2    
   120   60   62 1    
   121   62   63 1    
   122   62   64 1    
   123   62  123 1    
   124   63  124 1    
   125   63  125 1    
   126   63  126 1    
   127   64   65 am   BACKBONE|DICT|INTERRES
   128   64  127 1    
   129   65   66 2    
@<TRIPOS>SUBSTRUCTURE
     1 UNK         1 GROUP             0       ****    0 ROOT    
