@<TRIPOS>MOLECULE
3R134
127   129    1
SMALL
USER_CHARGES


@<TRIPOS>ATOM
      1 CA         36.9376  -42.4414  -54.9795 C.3       0 UNK        -0.1968 
      2 C          36.1494  -43.3139  -55.9453 C.2       0 UNK         0.4852 
      3 O          36.5892  -43.5239  -57.0766 O.2       0 UNK        -0.5359 
      4 N          34.9882  -43.8200  -55.5082 N.am      1 UNK        -0.4300 
      5 CA         34.1078  -44.7040  -56.2830 C.3       1 UNK         0.0863 
      6 C6         32.6775  -44.7477  -55.6882 C.3       11 UNK        -0.0953 
      7 S7         32.6272  -45.3303  -53.9569 S.3       11 UNK        -0.2369 
      8 C8         31.1450  -46.3828  -53.9428 C.3       11 UNK         0.0226 
      9 C9         30.0249  -45.7569  -53.1284 C.ar      11 UNK        -0.0699 
     10 C10        30.0623  -45.8296  -51.7330 C.ar      11 UNK        -0.0804 
     11 C11        28.9752  -45.3886  -50.9722 C.ar      11 UNK        -0.0871 
     12 C12        27.8861  -44.7907  -51.6123 C.ar      11 UNK        -0.1008 
     13 C13        27.8535  -44.6699  -53.0049 C.ar      11 UNK        -0.0735 
     14 C14        28.9218  -45.1743  -53.7597 C.ar      11 UNK        -0.0945 
     15 C15        26.6208  -44.0579  -53.6647 C.3       11 UNK         0.0169 
     16 S16        27.0019  -43.0316  -55.1227 S.3       11 UNK        -0.2669 
     17 C17        25.8485  -43.7432  -56.3461 C.3       11 UNK        -0.0850 
     18 CA         26.4020  -45.0298  -57.0279 C.3       10 UNK         0.0855 
     19 C          25.3519  -45.7224  -57.9469 C.2       10 UNK         0.5543 
     20 N          25.7217  -46.2645  -59.1018 N.am      10 UNK        -0.7343 
     21 O          24.1806  -45.8048  -57.5870 O.2       10 UNK        -0.5027 
     22 N          27.7286  -44.8626  -57.6411 N.am      10 UNK        -0.4495 
     23 C          28.0665  -43.9905  -58.6021 C.2       10 UNK         0.4903 
     24 O          27.3156  -43.1259  -59.0538 O.2       10 UNK        -0.4860 
     25 CA         29.4842  -44.1270  -59.1910 C.3       9 UNK         0.0227 
     26 CB         30.4555  -43.1911  -58.4541 C.3       9 UNK        -0.1964 
     27 N          30.0049  -45.4979  -59.1506 N.am      9 UNK        -0.4231 
     28 C          29.4363  -46.5580  -59.7421 C.2       9 UNK         0.5014 
     29 O          28.4338  -46.4903  -60.4560 O.2       9 UNK        -0.5270 
     30 CA         30.0363  -47.9419  -59.4395 C.3       8 UNK         0.0284 
     31 CB         31.4386  -47.9000  -58.7919 C.3       8 UNK        -0.1977 
     32 N          29.1063  -48.7441  -58.6338 N.am      8 UNK        -0.4342 
     33 C          28.5919  -48.4229  -57.4370 C.2       8 UNK         0.5039 
     34 O          28.8930  -47.4060  -56.8014 O.2       8 UNK        -0.5547 
     35 CA         27.5449  -49.3930  -56.8729 C.3       7 UNK         0.0281 
     36 CB         28.1711  -50.7455  -56.4859 C.3       7 UNK        -0.1963 
     37 N          26.9232  -48.7806  -55.7023 N.am      7 UNK        -0.4444 
     38 C          25.6408  -48.9051  -55.3410 C.2       7 UNK         0.5104 
     39 O          24.8374  -49.6370  -55.9219 O.2       7 UNK        -0.5100 
     40 CA         25.1779  -48.0476  -54.1432 C.3       6 UNK         0.0396 
     41 CB         23.8149  -48.4871  -53.5670 C.3       6 UNK        -0.1801 
     42 N          26.1976  -47.9386  -53.0917 N.am      6 UNK        -0.4747 
     43 C          26.6839  -48.9297  -52.3271 C.2       6 UNK         0.5012 
     44 O          26.2435  -50.0813  -52.3066 O.2       6 UNK        -0.5003 
     45 CA         27.8895  -48.5540  -51.4462 C.3       5 UNK         0.0782 
     46 C46        27.4704  -48.0414  -50.0445 C.3       11 UNK        -0.0868 
     47 S47        28.8998  -47.4287  -49.0784 S.3       11 UNK        -0.2515 
     48 C48        28.9359  -45.6421  -49.4712 C.3       11 UNK         0.0199 
     49 N          28.8887  -49.6253  -51.3963 N.am      5 UNK        -0.4607 
     50 C          29.6359  -49.9732  -52.4500 C.2       4 UNK         0.5031 
     51 O          29.5247  -49.4481  -53.5601 O.2       4 UNK        -0.5119 
     52 CA         30.6694  -51.0933  -52.2286 C.3       4 UNK         0.0263 
     53 CB         29.9762  -52.4657  -52.1844 C.3       4 UNK        -0.1967 
     54 N          31.6687  -51.1041  -53.2999 N.am      4 UNK        -0.4237 
     55 C          32.6130  -50.1696  -53.4693 C.2       3 UNK         0.4908 
     56 O          32.8980  -49.3134  -52.6271 O.2       3 UNK        -0.5102 
     57 CA         33.3367  -50.1870  -54.8221 C.3       3 UNK         0.0241 
     58 CB         32.3464  -50.0271  -55.9941 C.3       3 UNK        -0.1971 
     59 N          34.3202  -49.1070  -54.8660 N.am      3 UNK        -0.4139 
     60 C          35.4108  -49.0853  -55.6402 C.2       2 UNK         0.5016 
     61 O          35.7204  -50.0007  -56.4065 O.2       2 UNK        -0.5319 
     62 CA         36.2998  -47.8283  -55.5378 C.3       2 UNK         0.0286 
     63 CB         37.4056  -47.7865  -56.6146 C.3       2 UNK        -0.1963 
     64 N          35.5421  -46.5682  -55.5417 N.am      2 UNK        -0.4790 
     65 C          34.7006  -46.1178  -56.4896 C.2       1 UNK         0.5024 
     66 O          34.3984  -46.7486  -57.5027 O.2       1 UNK        -0.4888 
     67 H67        36.4323  -42.3348  -54.0198 H         1 UNK         0.0892 
     68 H68        37.9205  -42.8757  -54.7987 H         1 UNK         0.0892 
     69 H69        37.0768  -41.4464  -55.4012 H         1 UNK         0.0892 
     70 H70        34.6707  -43.6097  -54.5719 H         1 UNK         0.3107 
     71 H71        34.0206  -44.2673  -57.2806 H         1 UNK         0.0773 
     72 H72        32.0334  -45.3635  -56.3172 H         1 UNK         0.0680 
     73 H73        32.2418  -43.7479  -55.7102 H         1 UNK         0.0680 
     74 H74        31.4069  -47.3425  -53.4997 H         1 UNK         0.0650 
     75 H75        30.8059  -46.6123  -54.9534 H         1 UNK         0.0650 
     76 H76        30.9013  -46.3071  -51.2446 H         1 UNK         0.1397 
     77 H77        27.0441  -44.4478  -51.0258 H         1 UNK         0.1363 
     78 H78        28.8909  -45.1313  -54.8399 H         1 UNK         0.1355 
     79 H79        26.0789  -43.4335  -52.9525 H         1 UNK         0.0707 
     80 H80        25.9437  -44.8674  -53.9350 H         1 UNK         0.0707 
     81 H81        24.8975  -43.9448  -55.8498 H         1 UNK         0.1034 
     82 H82        25.6261  -42.9798  -57.0926 H         1 UNK         0.1034 
     83 H83        26.5687  -45.7566  -56.2329 H         1 UNK         0.0482 
     84 H84        26.6797  -46.2094  -59.4279 H         1 UNK         0.3460 
     85 H85        25.0260  -46.7155  -59.6740 H         1 UNK         0.3460 
     86 H86        28.4003  -45.5782  -57.3780 H         1 UNK         0.2989 
     87 H87        29.4399  -43.8235  -60.2389 H         1 UNK         0.0559 
     88 H88        31.4626  -43.2487  -58.8675 H         1 UNK         0.0848 
     89 H89        30.5092  -43.4259  -57.3907 H         1 UNK         0.0848 
     90 H90        30.1311  -42.1529  -58.5380 H         1 UNK         0.0848 
     91 H91        30.8061  -45.6658  -58.5607 H         1 UNK         0.3144 
     92 H92        30.1347  -48.4456  -60.4024 H         1 UNK         0.0727 
     93 H93        32.1329  -47.2996  -59.3816 H         1 UNK         0.0790 
     94 H94        31.8630  -48.9014  -58.7391 H         1 UNK         0.0790 
     95 H95        31.4242  -47.4950  -57.7796 H         1 UNK         0.0790 
     96 H96        28.7657  -49.5823  -59.0840 H         1 UNK         0.3215 
     97 H97        26.7876  -49.5488  -57.6445 H         1 UNK         0.0863 
     98 H98        29.0049  -50.6201  -55.7958 H         1 UNK         0.0808 
     99 H99        28.5523  -51.2707  -57.3620 H         1 UNK         0.0808 
    100 H100       27.4405  -51.3998  -56.0101 H         1 UNK         0.0808 
    101 H101       27.5330  -48.1434  -55.2047 H         1 UNK         0.3118 
    102 H102       25.0450  -47.0403  -54.5392 H         1 UNK         0.0546 
    103 H103       23.8302  -49.5222  -53.2254 H         1 UNK         0.0828 
    104 H104       23.0313  -48.4095  -54.3217 H         1 UNK         0.0828 
    105 H105       23.5168  -47.8596  -52.7273 H         1 UNK         0.0828 
    106 H106       26.6337  -47.0301  -53.0124 H         1 UNK         0.3005 
    107 H107       28.3717  -47.7358  -51.9708 H         1 UNK         0.1257 
    108 H108       26.9897  -48.8406  -49.4776 H         1 UNK         0.0775 
    109 H109       26.7325  -47.2411  -50.1261 H         1 UNK         0.0775 
    110 H110       28.0686  -45.1614  -49.0159 H         1 UNK         0.0840 
    111 H111       29.8148  -45.1927  -49.0070 H         1 UNK         0.0840 
    112 H112       29.0025  -50.1001  -50.5132 H         1 UNK         0.2987 
    113 H113       31.1769  -50.9163  -51.2779 H         1 UNK         0.0785 
    114 H114       29.2529  -52.5155  -51.3695 H         1 UNK         0.0798 
    115 H115       30.6954  -53.2694  -52.0251 H         1 UNK         0.0798 
    116 H116       29.4369  -52.6746  -53.1095 H         1 UNK         0.0798 
    117 H117       31.4959  -51.7492  -54.0563 H         1 UNK         0.3079 
    118 H118       33.8528  -51.1457  -54.9073 H         1 UNK         0.0794 
    119 H119       31.6355  -50.8522  -56.0404 H         1 UNK         0.0786 
    120 H120       32.8707  -50.0085  -56.9490 H         1 UNK         0.0786 
    121 H121       31.7701  -49.1046  -55.9073 H         1 UNK         0.0786 
    122 H122       34.1494  -48.3534  -54.2118 H         1 UNK         0.3032 
    123 H123       36.7931  -47.8913  -54.5663 H         1 UNK         0.1094 
    124 H124       38.0530  -48.6617  -56.5464 H         1 UNK         0.0794 
    125 H125       36.9879  -47.7684  -57.6219 H         1 UNK         0.0794 
    126 H126       38.0388  -46.9068  -56.4993 H         1 UNK         0.0794 
    127 H127       35.6934  -45.9664  -54.7440 H         1 UNK         0.3016 
@<TRIPOS>BOND
     1    1    2 1    
     2    1   67 1    
     3    1   68 1    
     4    1   69 1    
     5    2    3 2    
     6    2    4 am   BACKBONE|DICT|INTERRES
     7    4    5 1    
     8    4   70 1    
     9    5    6 1    
    10    5   65 1    
    11    5   71 1    
    12    6    7 1    
    13    6   72 1    
    14    6   73 1    
    15    7    8 1    
    16    8    9 1    
    17    8   74 1    
    18    8   75 1    
    19    9   10 ar   
    20    9   14 ar   
    21   10   11 ar   
    22   10   76 1    
    23   11   12 ar   
    24   11   48 1    
    25   12   13 ar   
    26   12   77 1    
    27   13   14 ar   
    28   13   15 1    
    29   14   78 1    
    30   15   16 1    
    31   15   79 1    
    32   15   80 1    
    33   16   17 1    
    34   17   18 1    
    35   17   81 1    
    36   17   82 1    
    37   18   19 1    
    38   18   22 1    
    39   18   83 1    
    40   19   20 am   BACKBONE|DICT|INTERRES
    41   19   21 2    
    42   20   84 1    
    43   20   85 1    
    44   22   23 am   BACKBONE|DICT|INTERRES
    45   22   86 1    
    46   23   24 2    
    47   23   25 1    
    48   25   26 1    
    49   25   27 1    
    50   25   87 1    
    51   26   88 1    
    52   26   89 1    
    53   26   90 1    
    54   27   28 am   BACKBONE|DICT|INTERRES
    55   27   91 1    
    56   28   29 2    
    57   28   30 1    
    58   30   31 1    
    59   30   32 1    
    60   30   92 1    
    61   31   93 1    
    62   31   94 1    
    63   31   95 1    
    64   32   33 am   BACKBONE|DICT|INTERRES
    65   32   96 1    
    66   33   34 2    
    67   33   35 1    
    68   35   36 1    
    69   35   37 1    
    70   35   97 1    
    71   36   98 1    
    72   36   99 1    
    73   36  100 1    
    74   37   38 am   BACKBONE|DICT|INTERRES
    75   37  101 1    
    76   38   39 2    
    77   38   40 1    
    78   40   41 1    
    79   40   42 1    
    80   40  102 1    
    81   41  103 1    
    82   41  104 1    
    83   41  105 1    
    84   42   43 am   BACKBONE|DICT|INTERRES
    85   42  106 1    
    86   43   44 2    
    87   43   45 1    
    88   45   46 1    
    89   45   49 1    
    90   45  107 1    
    91   46   47 1    
    92   46  108 1    
    93   46  109 1    
    94   47   48 1    
    95   48  110 1    
    96   48  111 1    
    97   49   50 am   BACKBONE|DICT|INTERRES
    98   49  112 1    
    99   50   51 2    
   100   50   52 1    
   101   52   53 1    
   102   52   54 1    
   103   52  113 1    
   104   53  114 1    
   105   53  115 1    
   106   53  116 1    
   107   54   55 am   BACKBONE|DICT|INTERRES
   108   54  117 1    
   109   55   56 2    
   110   55   57 1    
   111   57   58 1    
   112   57   59 1    
   113   57  118 1    
   114   58  119 1    
   115   58  120 1    
   116   58  121 1    
   117   59   60 am   BACKBONE|DICT|INTERRES
   118   59  122 1    
   119   60   61 2    
   120   60   62 1    
   121   62   63 1    
   122   62   64 1    
   123   62  123 1    
   124   63  124 1    
   125   63  125 1    
   126   63  126 1    
   127   64   65 am   BACKBONE|DICT|INTERRES
   128   64  127 1    
   129   65   66 2    
@<TRIPOS>SUBSTRUCTURE
     1 UNK         1 GROUP             0       ****    0 ROOT    
