@<TRIPOS>MOLECULE
3R134
127   129    1
SMALL
USER_CHARGES


@<TRIPOS>ATOM
      1 CA         35.7744  -48.0723  -55.0430 C.3       0 UNK        -0.1968 
      2 C          34.5635  -47.4644  -54.3533 C.2       0 UNK         0.4852 
      3 O          33.4647  -48.0073  -54.4737 O.2       0 UNK        -0.5359 
      4 N          34.7624  -46.3549  -53.6262 N.am      1 UNK        -0.4300 
      5 CA         33.7406  -45.5397  -52.9501 C.3       1 UNK         0.0863 
      6 C6         34.4090  -44.3747  -52.1760 C.3       11 UNK        -0.0953 
      7 S7         33.2680  -43.0348  -51.6878 S.3       11 UNK        -0.2369 
      8 C8         33.5573  -41.7738  -52.9710 C.3       11 UNK         0.0226 
      9 C9         32.6171  -41.9551  -54.1530 C.ar      11 UNK        -0.0699 
     10 C10        32.9997  -42.7218  -55.2563 C.ar      11 UNK        -0.0804 
     11 C11        32.1188  -42.9069  -56.3258 C.ar      11 UNK        -0.0871 
     12 C12        30.8682  -42.2827  -56.3057 C.ar      11 UNK        -0.1008 
     13 C13        30.4660  -41.5138  -55.2057 C.ar      11 UNK        -0.0735 
     14 C14        31.3533  -41.3567  -54.1361 C.ar      11 UNK        -0.0945 
     15 C15        29.0950  -40.8359  -55.1116 C.3       11 UNK         0.0169 
     16 S16        27.8882  -41.2415  -56.4242 S.3       11 UNK        -0.2669 
     17 C17        27.4943  -42.9822  -56.0371 C.3       11 UNK        -0.0850 
     18 CA         26.8494  -43.7291  -57.2333 C.3       10 UNK         0.0855 
     19 C          27.8590  -44.0074  -58.3759 C.2       10 UNK         0.5543 
     20 N          27.7327  -43.3215  -59.5032 N.am      10 UNK        -0.7343 
     21 O          28.7713  -44.8181  -58.2399 O.2       10 UNK        -0.5027 
     22 N          26.2680  -44.9960  -56.7857 N.am      10 UNK        -0.4495 
     23 C          24.9641  -45.2694  -56.6721 C.2       10 UNK         0.4903 
     24 O          24.0681  -44.4548  -56.9008 O.2       10 UNK        -0.4860 
     25 CA         24.6110  -46.6996  -56.2163 C.3       9 UNK         0.0227 
     26 CB         23.1066  -47.0255  -56.3315 C.3       9 UNK        -0.1964 
     27 N          25.4270  -47.7195  -56.8842 N.am      9 UNK        -0.4231 
     28 C          25.4824  -48.0013  -58.1951 C.2       9 UNK         0.5014 
     29 O          24.7689  -47.4661  -59.0448 O.2       9 UNK        -0.5270 
     30 CA         26.5239  -49.0415  -58.6548 C.3       8 UNK         0.0284 
     31 CB         27.6614  -48.3443  -59.4195 C.3       8 UNK        -0.1977 
     32 N          27.0985  -49.8370  -57.5639 N.am      8 UNK        -0.4342 
     33 C          26.4514  -50.8041  -56.8977 C.2       8 UNK         0.5039 
     34 O          25.3114  -51.1793  -57.1735 O.2       8 UNK        -0.5547 
     35 CA         27.1831  -51.4339  -55.6984 C.3       7 UNK         0.0281 
     36 CB         28.1606  -52.5252  -56.1636 C.3       7 UNK        -0.1963 
     37 N          27.8982  -50.4461  -54.8853 N.am      7 UNK        -0.4444 
     38 C          27.3174  -49.4529  -54.1963 C.2       7 UNK         0.5104 
     39 O          26.1003  -49.2889  -54.1203 O.2       7 UNK        -0.5100 
     40 CA         28.2551  -48.4278  -53.5377 C.3       6 UNK         0.0396 
     41 CB         28.7876  -48.9343  -52.1883 C.3       6 UNK        -0.1801 
     42 N          29.3687  -48.0702  -54.4181 N.am      6 UNK        -0.4747 
     43 C          29.2314  -47.3714  -55.5550 C.2       6 UNK         0.5012 
     44 O          28.1575  -46.9126  -55.9401 O.2       6 UNK        -0.5003 
     45 CA         30.4917  -47.1788  -56.4180 C.3       5 UNK         0.0782 
     46 C46        31.2241  -45.8918  -55.9898 C.3       11 UNK        -0.0868 
     47 S47        32.7352  -45.5485  -56.9605 S.3       11 UNK        -0.2515 
     48 C48        32.4890  -43.8194  -57.4885 C.3       11 UNK         0.0199 
     49 N          31.3525  -48.3641  -56.3746 N.am      5 UNK        -0.4607 
     50 C          31.0435  -49.5255  -56.9635 C.2       4 UNK         0.5031 
     51 O          30.0039  -49.7122  -57.5948 O.2       4 UNK        -0.5119 
     52 CA         32.0341  -50.6877  -56.7896 C.3       4 UNK         0.0263 
     53 CB         33.1842  -50.5659  -57.8017 C.3       4 UNK        -0.1967 
     54 N          32.5863  -50.8066  -55.4374 N.am      4 UNK        -0.4237 
     55 C          31.8716  -50.9535  -54.3136 C.2       3 UNK         0.4908 
     56 O          30.6414  -50.9683  -54.2840 O.2       3 UNK        -0.5102 
     57 CA         32.6476  -51.1068  -53.0005 C.3       3 UNK         0.0241 
     58 CB         34.0862  -51.6351  -53.1781 C.3       3 UNK        -0.1971 
     59 N          32.6864  -49.8181  -52.3123 N.am      3 UNK        -0.4139 
     60 C          32.3759  -49.6288  -51.0224 C.2       2 UNK         0.5016 
     61 O          31.9594  -50.5263  -50.2881 O.2       2 UNK        -0.5319 
     62 CA         32.5823  -48.2224  -50.4246 C.3       2 UNK         0.0286 
     63 CB         33.3335  -48.2953  -49.0823 C.3       2 UNK        -0.1963 
     64 N          33.3237  -47.3265  -51.3168 N.am      2 UNK        -0.4790 
     65 C          32.7752  -46.3541  -52.0569 C.2       1 UNK         0.5024 
     66 O          31.5676  -46.1153  -52.0835 O.2       1 UNK        -0.4888 
     67 H67        35.5600  -48.2291  -56.0998 H         1 UNK         0.0892 
     68 H68        36.0202  -49.0347  -54.5968 H         1 UNK         0.0892 
     69 H69        36.6509  -47.4290  -54.9695 H         1 UNK         0.0892 
     70 H70        35.7025  -45.9908  -53.5658 H         1 UNK         0.3107 
     71 H71        33.1409  -45.0981  -53.7444 H         1 UNK         0.0773 
     72 H72        35.2066  -43.9370  -52.7778 H         1 UNK         0.0680 
     73 H73        34.8998  -44.7475  -51.2749 H         1 UNK         0.0680 
     74 H74        33.3975  -40.7897  -52.5280 H         1 UNK         0.0650 
     75 H75        34.5977  -41.7867  -53.2983 H         1 UNK         0.0650 
     76 H76        33.9681  -43.2029  -55.2699 H         1 UNK         0.1397 
     77 H77        30.2038  -42.4276  -57.1449 H         1 UNK         0.1363 
     78 H78        31.0560  -40.7686  -53.2782 H         1 UNK         0.1355 
     79 H79        29.2491  -39.7560  -55.1220 H         1 UNK         0.0707 
     80 H80        28.6433  -41.0719  -54.1467 H         1 UNK         0.0707 
     81 H81        26.8044  -42.9754  -55.1918 H         1 UNK         0.1034 
     82 H82        28.3848  -43.5087  -55.6886 H         1 UNK         0.1034 
     83 H83        26.0544  -43.0973  -57.6350 H         1 UNK         0.0482 
     84 H84        27.0002  -42.6386  -59.6177 H         1 UNK         0.3460 
     85 H85        28.3880  -43.4856  -60.2507 H         1 UNK         0.3460 
     86 H86        26.9457  -45.7340  -56.5942 H         1 UNK         0.2989 
     87 H87        24.8762  -46.7528  -55.1594 H         1 UNK         0.0559 
     88 H88        22.8932  -48.0367  -55.9849 H         1 UNK         0.0848 
     89 H89        22.7486  -46.9394  -57.3578 H         1 UNK         0.0848 
     90 H90        22.5122  -46.3429  -55.7231 H         1 UNK         0.0848 
     91 H91        26.0832  -48.2012  -56.2831 H         1 UNK         0.3144 
     92 H92        26.0196  -49.7235  -59.3425 H         1 UNK         0.0727 
     93 H93        28.3833  -49.0646  -59.8048 H         1 UNK         0.0790 
     94 H94        28.1968  -47.6377  -58.7845 H         1 UNK         0.0790 
     95 H95        27.2758  -47.7847  -60.2728 H         1 UNK         0.0790 
     96 H96        28.0732  -49.6563  -57.3352 H         1 UNK         0.3215 
     97 H97        26.4297  -51.9015  -55.0608 H         1 UNK         0.0863 
     98 H98        28.6359  -53.0189  -55.3157 H         1 UNK         0.0808 
     99 H99        28.9492  -52.1194  -56.7975 H         1 UNK         0.0808 
    100 H100       27.6421  -53.2935  -56.7386 H         1 UNK         0.0808 
    101 H101       28.9117  -50.5354  -54.8354 H         1 UNK         0.3118 
    102 H102       27.6759  -47.5215  -53.3472 H         1 UNK         0.0546 
    103 H103       27.9657  -49.1535  -51.5057 H         1 UNK         0.0828 
    104 H104       29.4166  -48.1853  -51.7070 H         1 UNK         0.0828 
    105 H105       29.3729  -49.8476  -52.2923 H         1 UNK         0.0828 
    106 H106       30.2764  -48.4520  -54.1927 H         1 UNK         0.3005 
    107 H107       30.1589  -47.0437  -57.4495 H         1 UNK         0.1257 
    108 H108       31.4982  -45.9506  -54.9377 H         1 UNK         0.0775 
    109 H109       30.5386  -45.0482  -56.0751 H         1 UNK         0.0775 
    110 H110       33.4037  -43.4549  -57.9578 H         1 UNK         0.0840 
    111 H111       31.7172  -43.7999  -58.2601 H         1 UNK         0.0840 
    112 H112       32.2079  -48.2833  -55.8287 H         1 UNK         0.2987 
    113 H113       31.4912  -51.6115  -56.9993 H         1 UNK         0.0785 
    114 H114       33.7898  -49.6771  -57.6189 H         1 UNK         0.0798 
    115 H115       32.8008  -50.4949  -58.8207 H         1 UNK         0.0798 
    116 H116       33.8411  -51.4351  -57.7647 H         1 UNK         0.0798 
    117 H117       33.5914  -50.7719  -55.3574 H         1 UNK         0.3079 
    118 H118       32.0933  -51.8402  -52.4110 H         1 UNK         0.0794 
    119 H119       34.7317  -50.9174  -53.6841 H         1 UNK         0.0786 
    120 H120       34.0994  -52.5633  -53.7514 H         1 UNK         0.0786 
    121 H121       34.5390  -51.8528  -52.2105 H         1 UNK         0.0786 
    122 H122       32.9591  -49.0212  -52.8819 H         1 UNK         0.3032 
    123 H123       31.5864  -47.8188  -50.2283 H         1 UNK         0.1094 
    124 H124       34.3212  -48.7439  -49.1961 H         1 UNK         0.0794 
    125 H125       33.4629  -47.3043  -48.6467 H         1 UNK         0.0794 
    126 H126       32.7848  -48.8945  -48.3544 H         1 UNK         0.0794 
    127 H127       34.3212  -47.4750  -51.3817 H         1 UNK         0.3016 
@<TRIPOS>BOND
     1    1    2 1    
     2    1   67 1    
     3    1   68 1    
     4    1   69 1    
     5    2    3 2    
     6    2    4 am   BACKBONE|DICT|INTERRES
     7    4    5 1    
     8    4   70 1    
     9    5    6 1    
    10    5   65 1    
    11    5   71 1    
    12    6    7 1    
    13    6   72 1    
    14    6   73 1    
    15    7    8 1    
    16    8    9 1    
    17    8   74 1    
    18    8   75 1    
    19    9   10 ar   
    20    9   14 ar   
    21   10   11 ar   
    22   10   76 1    
    23   11   12 ar   
    24   11   48 1    
    25   12   13 ar   
    26   12   77 1    
    27   13   14 ar   
    28   13   15 1    
    29   14   78 1    
    30   15   16 1    
    31   15   79 1    
    32   15   80 1    
    33   16   17 1    
    34   17   18 1    
    35   17   81 1    
    36   17   82 1    
    37   18   19 1    
    38   18   22 1    
    39   18   83 1    
    40   19   20 am   BACKBONE|DICT|INTERRES
    41   19   21 2    
    42   20   84 1    
    43   20   85 1    
    44   22   23 am   BACKBONE|DICT|INTERRES
    45   22   86 1    
    46   23   24 2    
    47   23   25 1    
    48   25   26 1    
    49   25   27 1    
    50   25   87 1    
    51   26   88 1    
    52   26   89 1    
    53   26   90 1    
    54   27   28 am   BACKBONE|DICT|INTERRES
    55   27   91 1    
    56   28   29 2    
    57   28   30 1    
    58   30   31 1    
    59   30   32 1    
    60   30   92 1    
    61   31   93 1    
    62   31   94 1    
    63   31   95 1    
    64   32   33 am   BACKBONE|DICT|INTERRES
    65   32   96 1    
    66   33   34 2    
    67   33   35 1    
    68   35   36 1    
    69   35   37 1    
    70   35   97 1    
    71   36   98 1    
    72   36   99 1    
    73   36  100 1    
    74   37   38 am   BACKBONE|DICT|INTERRES
    75   37  101 1    
    76   38   39 2    
    77   38   40 1    
    78   40   41 1    
    79   40   42 1    
    80   40  102 1    
    81   41  103 1    
    82   41  104 1    
    83   41  105 1    
    84   42   43 am   BACKBONE|DICT|INTERRES
    85   42  106 1    
    86   43   44 2    
    87   43   45 1    
    88   45   46 1    
    89   45   49 1    
    90   45  107 1    
    91   46   47 1    
    92   46  108 1    
    93   46  109 1    
    94   47   48 1    
    95   48  110 1    
    96   48  111 1    
    97   49   50 am   BACKBONE|DICT|INTERRES
    98   49  112 1    
    99   50   51 2    
   100   50   52 1    
   101   52   53 1    
   102   52   54 1    
   103   52  113 1    
   104   53  114 1    
   105   53  115 1    
   106   53  116 1    
   107   54   55 am   BACKBONE|DICT|INTERRES
   108   54  117 1    
   109   55   56 2    
   110   55   57 1    
   111   57   58 1    
   112   57   59 1    
   113   57  118 1    
   114   58  119 1    
   115   58  120 1    
   116   58  121 1    
   117   59   60 am   BACKBONE|DICT|INTERRES
   118   59  122 1    
   119   60   61 2    
   120   60   62 1    
   121   62   63 1    
   122   62   64 1    
   123   62  123 1    
   124   63  124 1    
   125   63  125 1    
   126   63  126 1    
   127   64   65 am   BACKBONE|DICT|INTERRES
   128   64  127 1    
   129   65   66 2    
@<TRIPOS>SUBSTRUCTURE
     1 UNK         1 GROUP             0       ****    0 ROOT    
