@<TRIPOS>MOLECULE
3R134
127   129    1
SMALL
USER_CHARGES


@<TRIPOS>ATOM
      1 CA         33.7805  -45.1111  -47.9642 C.3       0 UNK        -0.1968 
      2 C          33.5824  -44.7104  -49.4184 C.2       0 UNK         0.4852 
      3 O          32.6168  -44.0130  -49.7321 O.2       0 UNK        -0.5359 
      4 N          34.4784  -45.1611  -50.3088 N.am      1 UNK        -0.4300 
      5 CA         34.5249  -44.9057  -51.7578 C.3       1 UNK         0.0863 
      6 C6         34.6027  -43.3946  -52.1149 C.3       11 UNK        -0.0953 
      7 S7         35.5290  -43.0845  -53.6562 S.3       11 UNK        -0.2369 
      8 C8         34.3947  -42.0045  -54.5876 C.3       11 UNK         0.0226 
      9 C9         33.2153  -42.7656  -55.1773 C.ar      11 UNK        -0.0699 
     10 C10        33.4101  -43.6314  -56.2588 C.ar      11 UNK        -0.0804 
     11 C11        32.3341  -44.3334  -56.8110 C.ar      11 UNK        -0.0871 
     12 C12        31.0536  -44.1514  -56.2832 C.ar      11 UNK        -0.1008 
     13 C13        30.8441  -43.2800  -55.2106 C.ar      11 UNK        -0.0735 
     14 C14        31.9280  -42.5907  -54.6589 C.ar      11 UNK        -0.0945 
     15 C15        29.4514  -43.1336  -54.6223 C.3       11 UNK         0.0169 
     16 S16        28.3096  -42.2930  -55.7620 S.3       11 UNK        -0.2669 
     17 C17        26.6970  -42.4975  -54.9158 C.3       11 UNK        -0.0850 
     18 CA         26.3245  -43.9616  -54.5236 C.3       10 UNK         0.0855 
     19 C          24.9271  -44.0754  -53.8405 C.2       10 UNK         0.5543 
     20 N          24.2228  -45.1950  -53.9668 N.am      10 UNK        -0.7343 
     21 O          24.4873  -43.1516  -53.1602 O.2       10 UNK        -0.5027 
     22 N          26.5496  -44.9326  -55.6080 N.am      10 UNK        -0.4495 
     23 C          25.8932  -44.9828  -56.7749 C.2       10 UNK         0.4903 
     24 O          25.0459  -44.1612  -57.1267 O.2       10 UNK        -0.4860 
     25 CA         26.2201  -46.1616  -57.7111 C.3       9 UNK         0.0227 
     26 CB         27.0997  -45.6885  -58.8780 C.3       9 UNK        -0.1964 
     27 N          26.8608  -47.3115  -57.0598 N.am      9 UNK        -0.4231 
     28 C          26.3172  -48.0627  -56.0909 C.2       9 UNK         0.5014 
     29 O          25.2128  -47.8414  -55.5881 O.2       9 UNK        -0.5270 
     30 CA         27.1750  -49.2449  -55.6066 C.3       8 UNK         0.0284 
     31 CB         26.5295  -50.0404  -54.4518 C.3       8 UNK        -0.1977 
     32 N          27.5622  -50.1237  -56.7160 N.am      8 UNK        -0.4342 
     33 C          26.7679  -50.8663  -57.5024 C.2       8 UNK         0.5039 
     34 O          25.5471  -50.9607  -57.3659 O.2       8 UNK        -0.5547 
     35 CA         27.4802  -51.6495  -58.6254 C.3       7 UNK         0.0281 
     36 CB         26.5130  -52.1828  -59.7049 C.3       7 UNK        -0.1963 
     37 N          28.5917  -50.8984  -59.2255 N.am      7 UNK        -0.4444 
     38 C          28.5185  -49.7516  -59.9215 C.2       7 UNK         0.5104 
     39 O          27.4661  -49.1895  -60.2254 O.2       7 UNK        -0.5100 
     40 CA         29.8757  -49.1159  -60.2930 C.3       6 UNK         0.0396 
     41 CB         29.7536  -47.6963  -60.8842 C.3       6 UNK        -0.1801 
     42 N          30.8214  -49.1241  -59.1688 N.am      6 UNK        -0.4747 
     43 C          30.6176  -48.6020  -57.9491 C.2       6 UNK         0.5012 
     44 O          29.6013  -47.9861  -57.6170 O.2       6 UNK        -0.5003 
     45 CA         31.7034  -48.8772  -56.8978 C.3       5 UNK         0.0782 
     46 C46        32.3125  -47.5798  -56.3269 C.3       11 UNK        -0.0868 
     47 S47        33.4740  -46.7785  -57.4834 S.3       11 UNK        -0.2515 
     48 C48        32.5513  -45.2877  -57.9778 C.3       11 UNK         0.0199 
     49 N          31.1496  -49.7113  -55.8323 N.am      5 UNK        -0.4607 
     50 C          30.8943  -51.0214  -55.9394 C.2       4 UNK         0.5031 
     51 O          31.0096  -51.6397  -56.9986 O.2       4 UNK        -0.5119 
     52 CA         30.3993  -51.7669  -54.6809 C.3       4 UNK         0.0263 
     53 CB         31.0256  -53.1718  -54.5593 C.3       4 UNK        -0.1967 
     54 N          30.5503  -51.0159  -53.4253 N.am      4 UNK        -0.4237 
     55 C          31.6841  -50.5888  -52.8460 C.2       3 UNK         0.4908 
     56 O          32.8167  -50.8101  -53.2780 O.2       3 UNK        -0.5102 
     57 CA         31.5040  -49.7264  -51.5817 C.3       3 UNK         0.0241 
     58 CB         32.5538  -50.0736  -50.5109 C.3       3 UNK        -0.1971 
     59 N          31.5529  -48.2817  -51.8396 N.am      3 UNK        -0.4139 
     60 C          30.8489  -47.5936  -52.7511 C.2       2 UNK         0.5016 
     61 O          30.0961  -48.1062  -53.5794 O.2       2 UNK        -0.5319 
     62 CA         30.9588  -46.0612  -52.7160 C.3       2 UNK         0.0286 
     63 CB         29.7324  -45.4772  -51.9949 C.3       2 UNK        -0.1963 
     64 N          32.1668  -45.5359  -52.0759 N.am      2 UNK        -0.4790 
     65 C          33.4160  -45.6352  -52.5474 C.2       1 UNK         0.5024 
     66 O          33.7165  -46.2876  -53.5445 O.2       1 UNK        -0.4888 
     67 H67        33.8902  -44.2225  -47.3432 H         1 UNK         0.0892 
     68 H68        32.9158  -45.6708  -47.6085 H         1 UNK         0.0892 
     69 H69        34.6660  -45.7315  -47.8273 H         1 UNK         0.0892 
     70 H70        35.2257  -45.7524  -49.9712 H         1 UNK         0.3107 
     71 H71        35.4647  -45.3656  -52.0689 H         1 UNK         0.0773 
     72 H72        35.1299  -42.8532  -51.3279 H         1 UNK         0.0680 
     73 H73        33.6094  -42.9450  -52.1641 H         1 UNK         0.0680 
     74 H74        34.0554  -41.1928  -53.9421 H         1 UNK         0.0650 
     75 H75        34.9519  -41.5336  -55.3987 H         1 UNK         0.0650 
     76 H76        34.4042  -43.7715  -56.6610 H         1 UNK         0.1397 
     77 H77        30.2152  -44.6928  -56.7012 H         1 UNK         0.1363 
     78 H78        31.7711  -41.9235  -53.8225 H         1 UNK         0.1355 
     79 H79        29.0862  -44.1361  -54.4112 H         1 UNK         0.0707 
     80 H80        29.4768  -42.5951  -53.6738 H         1 UNK         0.0707 
     81 H81        25.9282  -42.0821  -55.5694 H         1 UNK         0.1034 
     82 H82        26.7032  -41.8629  -54.0278 H         1 UNK         0.1034 
     83 H83        27.0018  -44.2632  -53.7260 H         1 UNK         0.0482 
     84 H84        24.5745  -45.9679  -54.5177 H         1 UNK         0.3460 
     85 H85        23.3253  -45.2672  -53.5145 H         1 UNK         0.3460 
     86 H86        27.2145  -45.6654  -55.4138 H         1 UNK         0.2989 
     87 H87        25.2712  -46.5107  -58.1230 H         1 UNK         0.0559 
     88 H88        26.6751  -44.8077  -59.3619 H         1 UNK         0.0848 
     89 H89        27.1812  -46.4623  -59.6407 H         1 UNK         0.0848 
     90 H90        28.1053  -45.4270  -58.5459 H         1 UNK         0.0848 
     91 H91        27.7953  -47.5555  -57.3844 H         1 UNK         0.3144 
     92 H92        28.1005  -48.8124  -55.2242 H         1 UNK         0.0727 
     93 H93        27.1720  -50.8546  -54.1190 H         1 UNK         0.0790 
     94 H94        25.5681  -50.4675  -54.7381 H         1 UNK         0.0790 
     95 H95        26.3520  -49.3950  -53.5906 H         1 UNK         0.0790 
     96 H96        28.5321  -50.0586  -56.9893 H         1 UNK         0.3215 
     97 H97        27.9317  -52.5164  -58.1399 H         1 UNK         0.0863 
     98 H98        27.0459  -52.7351  -60.4787 H         1 UNK         0.0808 
     99 H99        25.9576  -51.3782  -60.1875 H         1 UNK         0.0808 
    100 H100       25.7804  -52.8633  -59.2692 H         1 UNK         0.0808 
    101 H101       29.5164  -51.2569  -59.0202 H         1 UNK         0.3118 
    102 H102       30.3034  -49.7555  -61.0664 H         1 UNK         0.0546 
    103 H103       29.3965  -46.9789  -60.1474 H         1 UNK         0.0828 
    104 H104       29.0616  -47.6757  -61.7269 H         1 UNK         0.0828 
    105 H105       30.7164  -47.3399  -61.2499 H         1 UNK         0.0828 
    106 H106       31.6787  -49.6355  -59.3316 H         1 UNK         0.3005 
    107 H107       32.5114  -49.4476  -57.3625 H         1 UNK         0.1257 
    108 H108       31.5380  -46.8877  -55.9949 H         1 UNK         0.0775 
    109 H109       32.8904  -47.8219  -55.4346 H         1 UNK         0.0775 
    110 H110       33.1070  -44.7725  -58.7625 H         1 UNK         0.0840 
    111 H111       31.6002  -45.5851  -58.4230 H         1 UNK         0.0840 
    112 H112       30.9312  -49.2398  -54.9594 H         1 UNK         0.2987 
    113 H113       29.3262  -51.9008  -54.8227 H         1 UNK         0.0785 
    114 H114       30.6501  -53.6994  -53.6826 H         1 UNK         0.0798 
    115 H115       32.1124  -53.1259  -54.4838 H         1 UNK         0.0798 
    116 H116       30.7878  -53.7850  -55.4295 H         1 UNK         0.0798 
    117 H117       29.6818  -50.7129  -53.0055 H         1 UNK         0.3079 
    118 H118       30.5208  -49.9445  -51.1599 H         1 UNK         0.0794 
    119 H119       32.5528  -51.1430  -50.2951 H         1 UNK         0.0786 
    120 H120       32.3527  -49.5558  -49.5728 H         1 UNK         0.0786 
    121 H121       33.5619  -49.8073  -50.8319 H         1 UNK         0.0786 
    122 H122       32.1504  -47.7426  -51.2311 H         1 UNK         0.3032 
    123 H123       30.9592  -45.7202  -53.7525 H         1 UNK         0.1094 
    124 H124       29.6764  -45.8176  -50.9601 H         1 UNK         0.0794 
    125 H125       29.7562  -44.3880  -51.9811 H         1 UNK         0.0794 
    126 H126       28.8067  -45.7794  -52.4866 H         1 UNK         0.0794 
    127 H127       32.0428  -44.9737  -51.2360 H         1 UNK         0.3016 
@<TRIPOS>BOND
     1    1    2 1    
     2    1   67 1    
     3    1   68 1    
     4    1   69 1    
     5    2    3 2    
     6    2    4 am   BACKBONE|DICT|INTERRES
     7    4    5 1    
     8    4   70 1    
     9    5    6 1    
    10    5   65 1    
    11    5   71 1    
    12    6    7 1    
    13    6   72 1    
    14    6   73 1    
    15    7    8 1    
    16    8    9 1    
    17    8   74 1    
    18    8   75 1    
    19    9   10 ar   
    20    9   14 ar   
    21   10   11 ar   
    22   10   76 1    
    23   11   12 ar   
    24   11   48 1    
    25   12   13 ar   
    26   12   77 1    
    27   13   14 ar   
    28   13   15 1    
    29   14   78 1    
    30   15   16 1    
    31   15   79 1    
    32   15   80 1    
    33   16   17 1    
    34   17   18 1    
    35   17   81 1    
    36   17   82 1    
    37   18   19 1    
    38   18   22 1    
    39   18   83 1    
    40   19   20 am   BACKBONE|DICT|INTERRES
    41   19   21 2    
    42   20   84 1    
    43   20   85 1    
    44   22   23 am   BACKBONE|DICT|INTERRES
    45   22   86 1    
    46   23   24 2    
    47   23   25 1    
    48   25   26 1    
    49   25   27 1    
    50   25   87 1    
    51   26   88 1    
    52   26   89 1    
    53   26   90 1    
    54   27   28 am   BACKBONE|DICT|INTERRES
    55   27   91 1    
    56   28   29 2    
    57   28   30 1    
    58   30   31 1    
    59   30   32 1    
    60   30   92 1    
    61   31   93 1    
    62   31   94 1    
    63   31   95 1    
    64   32   33 am   BACKBONE|DICT|INTERRES
    65   32   96 1    
    66   33   34 2    
    67   33   35 1    
    68   35   36 1    
    69   35   37 1    
    70   35   97 1    
    71   36   98 1    
    72   36   99 1    
    73   36  100 1    
    74   37   38 am   BACKBONE|DICT|INTERRES
    75   37  101 1    
    76   38   39 2    
    77   38   40 1    
    78   40   41 1    
    79   40   42 1    
    80   40  102 1    
    81   41  103 1    
    82   41  104 1    
    83   41  105 1    
    84   42   43 am   BACKBONE|DICT|INTERRES
    85   42  106 1    
    86   43   44 2    
    87   43   45 1    
    88   45   46 1    
    89   45   49 1    
    90   45  107 1    
    91   46   47 1    
    92   46  108 1    
    93   46  109 1    
    94   47   48 1    
    95   48  110 1    
    96   48  111 1    
    97   49   50 am   BACKBONE|DICT|INTERRES
    98   49  112 1    
    99   50   51 2    
   100   50   52 1    
   101   52   53 1    
   102   52   54 1    
   103   52  113 1    
   104   53  114 1    
   105   53  115 1    
   106   53  116 1    
   107   54   55 am   BACKBONE|DICT|INTERRES
   108   54  117 1    
   109   55   56 2    
   110   55   57 1    
   111   57   58 1    
   112   57   59 1    
   113   57  118 1    
   114   58  119 1    
   115   58  120 1    
   116   58  121 1    
   117   59   60 am   BACKBONE|DICT|INTERRES
   118   59  122 1    
   119   60   61 2    
   120   60   62 1    
   121   62   63 1    
   122   62   64 1    
   123   62  123 1    
   124   63  124 1    
   125   63  125 1    
   126   63  126 1    
   127   64   65 am   BACKBONE|DICT|INTERRES
   128   64  127 1    
   129   65   66 2    
@<TRIPOS>SUBSTRUCTURE
     1 UNK         1 GROUP             0       ****    0 ROOT    
