@<TRIPOS>MOLECULE
3R134
127   129    1
SMALL
USER_CHARGES


@<TRIPOS>ATOM
      1 CA         36.8173  -44.5379  -47.8319 C.3       0 UNK        -0.1968 
      2 C          36.3285  -45.1355  -49.1429 C.2       0 UNK         0.4852 
      3 O          37.1433  -45.5684  -49.9604 O.2       0 UNK        -0.5359 
      4 N          35.0052  -45.1732  -49.3502 N.am      1 UNK        -0.4300 
      5 CA         34.3434  -45.7223  -50.5388 C.3       1 UNK         0.0863 
      6 C6         32.9591  -45.0591  -50.7589 C.3       11 UNK        -0.0953 
      7 S7         32.3391  -45.2841  -52.4607 S.3       11 UNK        -0.2369 
      8 C8         32.1646  -43.5644  -53.0212 C.3       11 UNK         0.0226 
      9 C9         31.4033  -43.4992  -54.3358 C.ar      11 UNK        -0.0699 
     10 C10        32.0482  -43.8088  -55.5352 C.ar      11 UNK        -0.0804 
     11 C11        31.3507  -43.7661  -56.7451 C.ar      11 UNK        -0.0871 
     12 C12        30.0038  -43.3944  -56.7498 C.ar      11 UNK        -0.1008 
     13 C13        29.3411  -43.0725  -55.5562 C.ar      11 UNK        -0.0735 
     14 C14        30.0536  -43.1342  -54.3539 C.ar      11 UNK        -0.0945 
     15 C15        27.8613  -42.6820  -55.4998 C.3       11 UNK         0.0169 
     16 S16        27.0491  -42.4510  -57.1201 S.3       11 UNK        -0.2669 
     17 C17        25.3555  -43.0426  -56.7770 C.3       11 UNK        -0.0850 
     18 CA         25.2298  -44.5953  -56.6892 C.3       10 UNK         0.0855 
     19 C          23.7677  -45.0606  -56.4123 C.2       10 UNK         0.5543 
     20 N          23.3527  -46.2481  -56.8354 N.am      10 UNK        -0.7343 
     21 O          22.9935  -44.3408  -55.7855 O.2       10 UNK        -0.5027 
     22 N          25.9154  -45.3030  -57.7837 N.am      10 UNK        -0.4495 
     23 C          25.6147  -45.2195  -59.0867 C.2       10 UNK         0.4903 
     24 O          24.6639  -44.5832  -59.5419 O.2       10 UNK        -0.4860 
     25 CA         26.5392  -45.9761  -60.0483 C.3       9 UNK         0.0227 
     26 CB         27.8490  -45.1976  -60.2602 C.3       9 UNK        -0.1964 
     27 N          26.8352  -47.3102  -59.5242 N.am      9 UNK        -0.4231 
     28 C          26.3210  -48.4467  -60.0104 C.2       9 UNK         0.5014 
     29 O          25.6140  -48.5091  -61.0178 O.2       9 UNK        -0.5270 
     30 CA         26.6376  -49.7429  -59.2459 C.3       8 UNK         0.0284 
     31 CB         27.9813  -50.3323  -59.7050 C.3       8 UNK        -0.1977 
     32 N          26.6367  -49.6022  -57.7868 N.am      8 UNK        -0.4342 
     33 C          25.5676  -49.2803  -57.0435 C.2       8 UNK         0.5039 
     34 O          24.4793  -48.9512  -57.5145 O.2       8 UNK        -0.5547 
     35 CA         25.7375  -49.3343  -55.5189 C.3       7 UNK         0.0281 
     36 CB         25.8125  -50.7903  -55.0285 C.3       7 UNK        -0.1963 
     37 N          26.9453  -48.6187  -55.1141 N.am      7 UNK        -0.4444 
     38 C          26.9579  -47.4218  -54.5145 C.2       7 UNK         0.5104 
     39 O          25.9460  -46.8470  -54.1140 O.2       7 UNK        -0.5100 
     40 CA         28.3236  -46.7308  -54.3269 C.3       6 UNK         0.0396 
     41 CB         28.7863  -46.8636  -52.8686 C.3       6 UNK        -0.1801 
     42 N          29.3871  -47.2114  -55.2158 N.am      6 UNK        -0.4747 
     43 C          29.3641  -47.1530  -56.5564 C.2       6 UNK         0.5012 
     44 O          28.4249  -46.6830  -57.2022 O.2       6 UNK        -0.5003 
     45 CA         30.5294  -47.8426  -57.3035 C.3       5 UNK         0.0782 
     46 C46        31.7260  -46.8916  -57.5492 C.3       11 UNK        -0.0868 
     47 S47        31.3818  -45.6294  -58.8202 S.3       11 UNK        -0.2515 
     48 C48        32.0522  -44.1191  -58.0500 C.3       11 UNK         0.0199 
     49 N          30.9853  -49.0797  -56.6562 N.am      5 UNK        -0.4607 
     50 C          30.2310  -50.1284  -56.2965 C.2       4 UNK         0.5031 
     51 O          29.0129  -50.1789  -56.4657 O.2       4 UNK        -0.5119 
     52 CA         30.9404  -51.3218  -55.6310 C.3       4 UNK         0.0263 
     53 CB         30.9316  -52.5359  -56.5741 C.3       4 UNK        -0.1967 
     54 N          32.3213  -51.0404  -55.2199 N.am      4 UNK        -0.4237 
     55 C          32.6686  -50.2630  -54.1855 C.2       3 UNK         0.4908 
     56 O          31.8610  -49.6954  -53.4463 O.2       3 UNK        -0.5102 
     57 CA         34.1710  -50.0434  -53.9870 C.3       3 UNK         0.0241 
     58 CB         34.6856  -48.9318  -54.9220 C.3       3 UNK        -0.1971 
     59 N          34.4272  -49.6732  -52.5987 N.am      3 UNK        -0.4139 
     60 C          35.5707  -49.8864  -51.9385 C.2       2 UNK         0.5016 
     61 O          36.5535  -50.4371  -52.4399 O.2       2 UNK        -0.5319 
     62 CA         35.6361  -49.3598  -50.4922 C.3       2 UNK         0.0286 
     63 CB         36.9609  -49.7090  -49.7879 C.3       2 UNK        -0.1963 
     64 N          35.4613  -47.9066  -50.4677 N.am      2 UNK        -0.4790 
     65 C          34.2862  -47.2671  -50.4728 C.2       1 UNK         0.5024 
     66 O          33.2060  -47.8581  -50.4197 O.2       1 UNK        -0.4888 
     67 H67        37.4729  -43.6900  -48.0281 H         1 UNK         0.0892 
     68 H68        37.3805  -45.2812  -47.2683 H         1 UNK         0.0892 
     69 H69        35.9932  -44.1919  -47.2083 H         1 UNK         0.0892 
     70 H70        34.3859  -44.8347  -48.6271 H         1 UNK         0.3107 
     71 H71        34.9616  -45.4692  -51.4035 H         1 UNK         0.0773 
     72 H72        32.2162  -45.4387  -50.0549 H         1 UNK         0.0680 
     73 H73        33.0315  -43.9888  -50.5597 H         1 UNK         0.0680 
     74 H74        33.1530  -43.1175  -53.1374 H         1 UNK         0.0650 
     75 H75        31.6458  -42.9832  -52.2572 H         1 UNK         0.0650 
     76 H76        33.0907  -44.0965  -55.5204 H         1 UNK         0.1397 
     77 H77        29.4823  -43.3779  -57.6955 H         1 UNK         0.1363 
     78 H78        29.5521  -42.9013  -53.4243 H         1 UNK         0.1355 
     79 H79        27.7564  -41.7546  -54.9350 H         1 UNK         0.0707 
     80 H80        27.3332  -43.4464  -54.9309 H         1 UNK         0.0707 
     81 H81        24.7040  -42.6599  -57.5645 H         1 UNK         0.1034 
     82 H82        25.0087  -42.5774  -55.8524 H         1 UNK         0.1034 
     83 H83        25.7731  -44.8948  -55.7963 H         1 UNK         0.0482 
     84 H84        22.4057  -46.5299  -56.6407 H         1 UNK         0.3460 
     85 H85        23.9747  -46.8923  -57.3065 H         1 UNK         0.3460 
     86 H86        26.7482  -45.8164  -57.5127 H         1 UNK         0.2989 
     87 H87        26.0339  -46.0454  -61.0138 H         1 UNK         0.0559 
     88 H88        28.5159  -45.7202  -60.9458 H         1 UNK         0.0848 
     89 H89        28.3877  -45.0419  -59.3251 H         1 UNK         0.0848 
     90 H90        27.6509  -44.2128  -60.6851 H         1 UNK         0.0848 
     91 H91        27.3975  -47.3443  -58.6790 H         1 UNK         0.3144 
     92 H92        25.8553  -50.4627  -59.4961 H         1 UNK         0.0727 
     93 H93        28.1766  -51.2939  -59.2297 H         1 UNK         0.0790 
     94 H94        28.8148  -49.6702  -59.4735 H         1 UNK         0.0790 
     95 H95        27.9864  -50.4973  -60.7833 H         1 UNK         0.0790 
     96 H96        27.4987  -49.8642  -57.3094 H         1 UNK         0.3215 
     97 H97        24.8521  -48.8760  -55.0723 H         1 UNK         0.0863 
     98 H98        25.8684  -50.8360  -53.9408 H         1 UNK         0.0808 
     99 H99        26.6815  -51.3142  -55.4286 H         1 UNK         0.0808 
    100 H100       24.9259  -51.3492  -55.3309 H         1 UNK         0.0808 
    101 H101       27.8275  -49.0149  -55.4214 H         1 UNK         0.3118 
    102 H102       28.1765  -45.6717  -54.5421 H         1 UNK         0.0546 
    103 H103       29.0419  -47.8935  -52.6164 H         1 UNK         0.0828 
    104 H104       28.0074  -46.5399  -52.1767 H         1 UNK         0.0828 
    105 H105       29.6584  -46.2425  -52.6756 H         1 UNK         0.0828 
    106 H106       30.1826  -47.6485  -54.7709 H         1 UNK         0.3005 
    107 H107       30.1369  -48.1410  -58.2768 H         1 UNK         0.1257 
    108 H108       32.0505  -46.4311  -56.6152 H         1 UNK         0.0775 
    109 H109       32.5856  -47.4591  -57.9095 H         1 UNK         0.0775 
    110 H110       33.1248  -44.2463  -57.8954 H         1 UNK         0.0840 
    111 H111       31.9416  -43.2890  -58.7490 H         1 UNK         0.0840 
    112 H112       31.9750  -49.1418  -56.4750 H         1 UNK         0.2987 
    113 H113       30.3641  -51.5780  -54.7393 H         1 UNK         0.0785 
    114 H114       31.4961  -52.3435  -57.4874 H         1 UNK         0.0798 
    115 H115       29.9135  -52.7943  -56.8699 H         1 UNK         0.0798 
    116 H116       31.3583  -53.4161  -56.0929 H         1 UNK         0.0798 
    117 H117       33.0506  -51.4625  -55.7781 H         1 UNK         0.3079 
    118 H118       34.6868  -50.9799  -54.2108 H         1 UNK         0.0794 
    119 H119       34.1858  -47.9811  -54.7289 H         1 UNK         0.0786 
    120 H120       34.5190  -49.1849  -55.9696 H         1 UNK         0.0786 
    121 H121       35.7573  -48.7745  -54.7980 H         1 UNK         0.0786 
    122 H122       33.6463  -49.2354  -52.1185 H         1 UNK         0.3032 
    123 H123       34.8265  -49.8368  -49.9345 H         1 UNK         0.1094 
    124 H124       36.9622  -49.3641  -48.7538 H         1 UNK         0.0794 
    125 H125       37.1209  -50.7879  -49.7685 H         1 UNK         0.0794 
    126 H126       37.8180  -49.2597  -50.2914 H         1 UNK         0.0794 
    127 H127       36.3026  -47.3376  -50.4913 H         1 UNK         0.3016 
@<TRIPOS>BOND
     1    1    2 1    
     2    1   67 1    
     3    1   68 1    
     4    1   69 1    
     5    2    3 2    
     6    2    4 am   BACKBONE|DICT|INTERRES
     7    4    5 1    
     8    4   70 1    
     9    5    6 1    
    10    5   65 1    
    11    5   71 1    
    12    6    7 1    
    13    6   72 1    
    14    6   73 1    
    15    7    8 1    
    16    8    9 1    
    17    8   74 1    
    18    8   75 1    
    19    9   10 ar   
    20    9   14 ar   
    21   10   11 ar   
    22   10   76 1    
    23   11   12 ar   
    24   11   48 1    
    25   12   13 ar   
    26   12   77 1    
    27   13   14 ar   
    28   13   15 1    
    29   14   78 1    
    30   15   16 1    
    31   15   79 1    
    32   15   80 1    
    33   16   17 1    
    34   17   18 1    
    35   17   81 1    
    36   17   82 1    
    37   18   19 1    
    38   18   22 1    
    39   18   83 1    
    40   19   20 am   BACKBONE|DICT|INTERRES
    41   19   21 2    
    42   20   84 1    
    43   20   85 1    
    44   22   23 am   BACKBONE|DICT|INTERRES
    45   22   86 1    
    46   23   24 2    
    47   23   25 1    
    48   25   26 1    
    49   25   27 1    
    50   25   87 1    
    51   26   88 1    
    52   26   89 1    
    53   26   90 1    
    54   27   28 am   BACKBONE|DICT|INTERRES
    55   27   91 1    
    56   28   29 2    
    57   28   30 1    
    58   30   31 1    
    59   30   32 1    
    60   30   92 1    
    61   31   93 1    
    62   31   94 1    
    63   31   95 1    
    64   32   33 am   BACKBONE|DICT|INTERRES
    65   32   96 1    
    66   33   34 2    
    67   33   35 1    
    68   35   36 1    
    69   35   37 1    
    70   35   97 1    
    71   36   98 1    
    72   36   99 1    
    73   36  100 1    
    74   37   38 am   BACKBONE|DICT|INTERRES
    75   37  101 1    
    76   38   39 2    
    77   38   40 1    
    78   40   41 1    
    79   40   42 1    
    80   40  102 1    
    81   41  103 1    
    82   41  104 1    
    83   41  105 1    
    84   42   43 am   BACKBONE|DICT|INTERRES
    85   42  106 1    
    86   43   44 2    
    87   43   45 1    
    88   45   46 1    
    89   45   49 1    
    90   45  107 1    
    91   46   47 1    
    92   46  108 1    
    93   46  109 1    
    94   47   48 1    
    95   48  110 1    
    96   48  111 1    
    97   49   50 am   BACKBONE|DICT|INTERRES
    98   49  112 1    
    99   50   51 2    
   100   50   52 1    
   101   52   53 1    
   102   52   54 1    
   103   52  113 1    
   104   53  114 1    
   105   53  115 1    
   106   53  116 1    
   107   54   55 am   BACKBONE|DICT|INTERRES
   108   54  117 1    
   109   55   56 2    
   110   55   57 1    
   111   57   58 1    
   112   57   59 1    
   113   57  118 1    
   114   58  119 1    
   115   58  120 1    
   116   58  121 1    
   117   59   60 am   BACKBONE|DICT|INTERRES
   118   59  122 1    
   119   60   61 2    
   120   60   62 1    
   121   62   63 1    
   122   62   64 1    
   123   62  123 1    
   124   63  124 1    
   125   63  125 1    
   126   63  126 1    
   127   64   65 am   BACKBONE|DICT|INTERRES
   128   64  127 1    
   129   65   66 2    
@<TRIPOS>SUBSTRUCTURE
     1 UNK         1 GROUP             0       ****    0 ROOT    
