@<TRIPOS>MOLECULE
3R134
127   129    1
SMALL
USER_CHARGES


@<TRIPOS>ATOM
      1 CA         35.2432  -45.0917  -59.6524 C.3       0 UNK        -0.1968 
      2 C          34.2713  -45.8268  -58.7415 C.2       0 UNK         0.4852 
      3 O          34.0547  -47.0263  -58.9187 O.2       0 UNK        -0.5359 
      4 N          33.6895  -45.1193  -57.7629 N.am      1 UNK        -0.4300 
      5 CA         32.7310  -45.6591  -56.7904 C.3       1 UNK         0.0863 
      6 C6         31.9907  -44.5432  -56.0131 C.3       11 UNK        -0.0953 
      7 S7         33.0748  -43.3304  -55.1741 S.3       11 UNK        -0.2369 
      8 C8         33.0340  -43.8896  -53.4298 C.3       11 UNK         0.0226 
      9 C9         31.6715  -43.8502  -52.7306 C.ar      11 UNK        -0.0699 
     10 C10        31.5207  -44.5462  -51.5266 C.ar      11 UNK        -0.0804 
     11 C11        30.2923  -44.5694  -50.8588 C.ar      11 UNK        -0.0871 
     12 C12        29.1955  -43.9026  -51.4140 C.ar      11 UNK        -0.1008 
     13 C13        29.3275  -43.1989  -52.6137 C.ar      11 UNK        -0.0735 
     14 C14        30.5739  -43.1486  -53.2452 C.ar      11 UNK        -0.0945 
     15 C15        28.1234  -42.4965  -53.2294 C.3       11 UNK         0.0169 
     16 S16        27.2288  -43.5788  -54.3960 S.3       11 UNK        -0.2669 
     17 C17        28.4302  -43.7019  -55.7643 C.3       11 UNK        -0.0850 
     18 CA         27.7844  -43.7229  -57.1713 C.3       10 UNK         0.0855 
     19 C          28.8744  -43.5111  -58.2667 C.2       10 UNK         0.5543 
     20 N          29.2153  -44.5006  -59.0849 N.am      10 UNK        -0.7343 
     21 O          29.4248  -42.4182  -58.3708 O.2       10 UNK        -0.5027 
     22 N          26.9579  -44.9221  -57.3620 N.am      10 UNK        -0.4495 
     23 C          26.1004  -45.1016  -58.3751 C.2       10 UNK         0.4903 
     24 O          25.7871  -44.2128  -59.1690 O.2       10 UNK        -0.4860 
     25 CA         25.5081  -46.5156  -58.5365 C.3       9 UNK         0.0227 
     26 CB         25.1056  -46.8268  -59.9937 C.3       9 UNK        -0.1964 
     27 N          26.3694  -47.5789  -57.9987 N.am      9 UNK        -0.4231 
     28 C          27.6219  -47.8942  -58.3754 C.2       9 UNK         0.5014 
     29 O          28.2338  -47.2890  -59.2569 O.2       9 UNK        -0.5270 
     30 CA         28.3336  -49.0429  -57.6296 C.3       8 UNK         0.0284 
     31 CB         29.7558  -48.6331  -57.1962 C.3       8 UNK        -0.1977 
     32 N          27.5776  -49.4893  -56.4551 N.am      8 UNK        -0.4342 
     33 C          26.6574  -50.4671  -56.4640 C.2       8 UNK         0.5039 
     34 O          26.4346  -51.1804  -57.4423 O.2       8 UNK        -0.5547 
     35 CA         25.8072  -50.6686  -55.1919 C.3       7 UNK         0.0281 
     36 CB         26.2937  -51.8921  -54.3994 C.3       7 UNK        -0.1963 
     37 N          25.7681  -49.4990  -54.3075 N.am      7 UNK        -0.4444 
     38 C          25.2200  -48.3161  -54.6222 C.2       7 UNK         0.5104 
     39 O          24.6194  -48.1055  -55.6748 O.2       7 UNK        -0.5100 
     40 CA         25.4417  -47.1553  -53.6343 C.3       6 UNK         0.0396 
     41 CB         24.2381  -47.0139  -52.6905 C.3       6 UNK        -0.1801 
     42 N          26.6740  -47.2697  -52.8421 N.am      6 UNK        -0.4747 
     43 C          27.9168  -47.3195  -53.3480 C.2       6 UNK         0.5012 
     44 O          28.1453  -47.3079  -54.5590 O.2       6 UNK        -0.5003 
     45 CA         29.0924  -47.4830  -52.3674 C.3       5 UNK         0.0782 
     46 C46        28.6938  -47.3490  -50.8687 C.3       11 UNK        -0.0868 
     47 S47        30.1386  -47.1319  -49.7802 S.3       11 UNK        -0.2515 
     48 C48        30.1490  -45.3245  -49.5433 C.3       11 UNK         0.0199 
     49 N          29.6986  -48.7767  -52.6821 N.am      5 UNK        -0.4607 
     50 C          31.0064  -49.0377  -52.7762 C.2       4 UNK         0.5031 
     51 O          31.8932  -48.2386  -52.4739 O.2       4 UNK        -0.5119 
     52 CA         31.3985  -50.4324  -53.2970 C.3       4 UNK         0.0263 
     53 CB         30.2187  -51.2584  -53.8637 C.3       4 UNK        -0.1967 
     54 N          32.4497  -50.2768  -54.3004 N.am      4 UNK        -0.4237 
     55 C          33.3023  -51.2352  -54.6916 C.2       3 UNK         0.4908 
     56 O          33.2630  -52.3951  -54.2781 O.2       3 UNK        -0.5102 
     57 CA         34.3954  -50.8497  -55.7102 C.3       3 UNK         0.0241 
     58 CB         33.9295  -51.1689  -57.1402 C.3       3 UNK        -0.1971 
     59 N          34.7866  -49.4409  -55.6390 N.am      3 UNK        -0.4139 
     60 C          35.3562  -48.8555  -54.5772 C.2       2 UNK         0.5016 
     61 O          35.7873  -49.4815  -53.6077 O.2       2 UNK        -0.5319 
     62 CA         35.4470  -47.3162  -54.5686 C.3       2 UNK         0.0286 
     63 CB         36.9129  -46.8625  -54.6729 C.3       2 UNK        -0.1963 
     64 N          34.6637  -46.5971  -55.5844 N.am      2 UNK        -0.4790 
     65 C          33.3429  -46.6824  -55.8141 C.2       1 UNK         0.5024 
     66 O          32.6061  -47.5195  -55.2973 O.2       1 UNK        -0.4888 
     67 H67        36.2300  -45.5505  -59.5962 H         1 UNK         0.0892 
     68 H68        34.9010  -45.1445  -60.6855 H         1 UNK         0.0892 
     69 H69        35.3417  -44.0407  -59.3814 H         1 UNK         0.0892 
     70 H70        33.9043  -44.1372  -57.6571 H         1 UNK         0.3107 
     71 H71        31.9764  -46.2048  -57.3618 H         1 UNK         0.0773 
     72 H72        31.3690  -43.9817  -56.7102 H         1 UNK         0.0680 
     73 H73        31.2990  -44.9815  -55.2921 H         1 UNK         0.0680 
     74 H74        33.7270  -43.2686  -52.8610 H         1 UNK         0.0650 
     75 H75        33.4283  -44.9057  -53.3878 H         1 UNK         0.0650 
     76 H76        32.3605  -45.0863  -51.1101 H         1 UNK         0.1397 
     77 H77        28.2359  -43.9330  -50.9160 H         1 UNK         0.1363 
     78 H78        30.6780  -42.5763  -54.1539 H         1 UNK         0.1355 
     79 H79        28.4330  -41.5813  -53.7366 H         1 UNK         0.0707 
     80 H80        27.4340  -42.1861  -52.4428 H         1 UNK         0.0707 
     81 H81        29.1106  -42.8529  -55.6959 H         1 UNK         0.1034 
     82 H82        29.0314  -44.5983  -55.6068 H         1 UNK         0.1034 
     83 H83        27.1196  -42.8597  -57.2415 H         1 UNK         0.0482 
     84 H84        28.7673  -45.4103  -59.0366 H         1 UNK         0.3460 
     85 H85        29.9171  -44.3317  -59.7868 H         1 UNK         0.3460 
     86 H86        27.1488  -45.6969  -56.7439 H         1 UNK         0.2989 
     87 H87        24.5985  -46.5291  -57.9349 H         1 UNK         0.0559 
     88 H88        24.3539  -46.1229  -60.3526 H         1 UNK         0.0848 
     89 H89        24.6788  -47.8257  -60.0829 H         1 UNK         0.0848 
     90 H90        25.9581  -46.7641  -60.6709 H         1 UNK         0.0848 
     91 H91        25.9519  -48.1039  -57.2379 H         1 UNK         0.3144 
     92 H92        28.4298  -49.8688  -58.3372 H         1 UNK         0.0727 
     93 H93        29.7513  -47.7577  -56.5467 H         1 UNK         0.0790 
     94 H94        30.3725  -48.3861  -58.0613 H         1 UNK         0.0790 
     95 H95        30.2620  -49.4397  -56.6666 H         1 UNK         0.0790 
     96 H96        27.6819  -48.9086  -55.6280 H         1 UNK         0.3215 
     97 H97        24.7846  -50.8653  -55.5218 H         1 UNK         0.0863 
     98 H98        25.6402  -52.1033  -53.5527 H         1 UNK         0.0808 
     99 H99        27.3043  -51.7530  -54.0185 H         1 UNK         0.0808 
    100 H100       26.3037  -52.7844  -55.0272 H         1 UNK         0.0808 
    101 H101       26.2160  -49.5874  -53.4078 H         1 UNK         0.3118 
    102 H102       25.5183  -46.2405  -54.2258 H         1 UNK         0.0546 
    103 H103       24.1239  -47.8857  -52.0452 H         1 UNK         0.0828 
    104 H104       23.3111  -46.9029  -53.2550 H         1 UNK         0.0828 
    105 H105       24.3334  -46.1334  -52.0549 H         1 UNK         0.0828 
    106 H106       26.5578  -47.3016  -51.8395 H         1 UNK         0.3005 
    107 H107       29.7946  -46.6863  -52.6240 H         1 UNK         0.1257 
    108 H108       28.0298  -46.4986  -50.7060 H         1 UNK         0.0775 
    109 H109       28.1466  -48.2323  -50.5345 H         1 UNK         0.0775 
    110 H110       29.2392  -45.0247  -49.0206 H         1 UNK         0.0840 
    111 H111       30.9770  -45.0603  -48.8840 H         1 UNK         0.0840 
    112 H112       29.0555  -49.4970  -52.9717 H         1 UNK         0.2987 
    113 H113       31.8189  -50.9707  -52.4451 H         1 UNK         0.0785 
    114 H114       29.4760  -51.4605  -53.0916 H         1 UNK         0.0798 
    115 H115       30.5504  -52.2298  -54.2298 H         1 UNK         0.0798 
    116 H116       29.7244  -50.7505  -54.6921 H         1 UNK         0.0798 
    117 H117       32.5744  -49.3248  -54.6432 H         1 UNK         0.3079 
    118 H118       35.2784  -51.4537  -55.4908 H         1 UNK         0.0794 
    119 H119       34.7180  -50.9754  -57.8678 H         1 UNK         0.0786 
    120 H120       33.0585  -50.5754  -57.4223 H         1 UNK         0.0786 
    121 H121       33.6530  -52.2200  -57.2352 H         1 UNK         0.0786 
    122 H122       34.4649  -48.8402  -56.3848 H         1 UNK         0.3032 
    123 H123       35.0613  -47.0014  -53.5964 H         1 UNK         0.1094 
    124 H124       37.3429  -47.1140  -55.6432 H         1 UNK         0.0794 
    125 H125       37.0080  -45.7859  -54.5301 H         1 UNK         0.0794 
    126 H126       37.5288  -47.3410  -53.9099 H         1 UNK         0.0794 
    127 H127       35.1626  -45.8815  -56.0929 H         1 UNK         0.3016 
@<TRIPOS>BOND
     1    1    2 1    
     2    1   67 1    
     3    1   68 1    
     4    1   69 1    
     5    2    3 2    
     6    2    4 am   BACKBONE|DICT|INTERRES
     7    4    5 1    
     8    4   70 1    
     9    5    6 1    
    10    5   65 1    
    11    5   71 1    
    12    6    7 1    
    13    6   72 1    
    14    6   73 1    
    15    7    8 1    
    16    8    9 1    
    17    8   74 1    
    18    8   75 1    
    19    9   10 ar   
    20    9   14 ar   
    21   10   11 ar   
    22   10   76 1    
    23   11   12 ar   
    24   11   48 1    
    25   12   13 ar   
    26   12   77 1    
    27   13   14 ar   
    28   13   15 1    
    29   14   78 1    
    30   15   16 1    
    31   15   79 1    
    32   15   80 1    
    33   16   17 1    
    34   17   18 1    
    35   17   81 1    
    36   17   82 1    
    37   18   19 1    
    38   18   22 1    
    39   18   83 1    
    40   19   20 am   BACKBONE|DICT|INTERRES
    41   19   21 2    
    42   20   84 1    
    43   20   85 1    
    44   22   23 am   BACKBONE|DICT|INTERRES
    45   22   86 1    
    46   23   24 2    
    47   23   25 1    
    48   25   26 1    
    49   25   27 1    
    50   25   87 1    
    51   26   88 1    
    52   26   89 1    
    53   26   90 1    
    54   27   28 am   BACKBONE|DICT|INTERRES
    55   27   91 1    
    56   28   29 2    
    57   28   30 1    
    58   30   31 1    
    59   30   32 1    
    60   30   92 1    
    61   31   93 1    
    62   31   94 1    
    63   31   95 1    
    64   32   33 am   BACKBONE|DICT|INTERRES
    65   32   96 1    
    66   33   34 2    
    67   33   35 1    
    68   35   36 1    
    69   35   37 1    
    70   35   97 1    
    71   36   98 1    
    72   36   99 1    
    73   36  100 1    
    74   37   38 am   BACKBONE|DICT|INTERRES
    75   37  101 1    
    76   38   39 2    
    77   38   40 1    
    78   40   41 1    
    79   40   42 1    
    80   40  102 1    
    81   41  103 1    
    82   41  104 1    
    83   41  105 1    
    84   42   43 am   BACKBONE|DICT|INTERRES
    85   42  106 1    
    86   43   44 2    
    87   43   45 1    
    88   45   46 1    
    89   45   49 1    
    90   45  107 1    
    91   46   47 1    
    92   46  108 1    
    93   46  109 1    
    94   47   48 1    
    95   48  110 1    
    96   48  111 1    
    97   49   50 am   BACKBONE|DICT|INTERRES
    98   49  112 1    
    99   50   51 2    
   100   50   52 1    
   101   52   53 1    
   102   52   54 1    
   103   52  113 1    
   104   53  114 1    
   105   53  115 1    
   106   53  116 1    
   107   54   55 am   BACKBONE|DICT|INTERRES
   108   54  117 1    
   109   55   56 2    
   110   55   57 1    
   111   57   58 1    
   112   57   59 1    
   113   57  118 1    
   114   58  119 1    
   115   58  120 1    
   116   58  121 1    
   117   59   60 am   BACKBONE|DICT|INTERRES
   118   59  122 1    
   119   60   61 2    
   120   60   62 1    
   121   62   63 1    
   122   62   64 1    
   123   62  123 1    
   124   63  124 1    
   125   63  125 1    
   126   63  126 1    
   127   64   65 am   BACKBONE|DICT|INTERRES
   128   64  127 1    
   129   65   66 2    
@<TRIPOS>SUBSTRUCTURE
     1 UNK         1 GROUP             0       ****    0 ROOT    
