@<TRIPOS>MOLECULE
3R134
127   129    1
SMALL
USER_CHARGES


@<TRIPOS>ATOM
      1 CA         30.3006  -46.1353  -52.4900 C.3       0 UNK        -0.1968 
      2 C          31.7209  -46.1019  -51.9490 C.2       0 UNK         0.4852 
      3 O          32.0945  -46.9751  -51.1661 O.2       0 UNK        -0.5359 
      4 N          32.5169  -45.1026  -52.3557 N.am      1 UNK        -0.4300 
      5 CA         33.8791  -44.8439  -51.8629 C.3       1 UNK         0.0863 
      6 C6         34.4739  -43.5264  -52.4192 C.3       11 UNK        -0.0953 
      7 S7         33.4665  -42.0602  -52.0122 S.3       11 UNK        -0.2369 
      8 C8         32.9428  -41.4879  -53.6595 C.3       11 UNK         0.0226 
      9 C9         31.8654  -42.3843  -54.2492 C.ar      11 UNK        -0.0699 
     10 C10        32.2021  -43.3971  -55.1533 C.ar      11 UNK        -0.0804 
     11 C11        31.2124  -44.2343  -55.6740 C.ar      11 UNK        -0.0871 
     12 C12        29.8797  -44.0381  -55.3079 C.ar      11 UNK        -0.1008 
     13 C13        29.5273  -43.0136  -54.4266 C.ar      11 UNK        -0.0735 
     14 C14        30.5265  -42.1958  -53.8911 C.ar      11 UNK        -0.0945 
     15 C15        28.0706  -42.8131  -54.0354 C.3       11 UNK         0.0169 
     16 S16        27.3680  -41.2620  -54.6864 S.3       11 UNK        -0.2669 
     17 C17        27.5221  -41.4381  -56.5004 C.3       11 UNK        -0.0850 
     18 CA         26.2118  -41.9575  -57.1686 C.3       10 UNK         0.0855 
     19 C          26.1228  -41.7300  -58.7122 C.2       10 UNK         0.5543 
     20 N          26.8448  -40.7699  -59.2764 N.am      10 UNK        -0.7343 
     21 O          25.3422  -42.3801  -59.4051 O.2       10 UNK        -0.5027 
     22 N          25.9068  -43.3431  -56.7702 N.am      10 UNK        -0.4495 
     23 C          26.5813  -44.4379  -57.1499 C.2       10 UNK         0.4903 
     24 O          27.5574  -44.4181  -57.9029 O.2       10 UNK        -0.4860 
     25 CA         26.1486  -45.7772  -56.5214 C.3       9 UNK         0.0227 
     26 CB         24.6935  -45.8005  -55.9992 C.3       9 UNK        -0.1964 
     27 N          26.4163  -46.9114  -57.4098 N.am      9 UNK        -0.4231 
     28 C          25.8262  -47.1951  -58.5814 C.2       9 UNK         0.5014 
     29 O          24.9201  -46.5307  -59.0861 O.2       9 UNK        -0.5270 
     30 CA         26.3177  -48.4606  -59.3042 C.3       8 UNK         0.0284 
     31 CB         27.5584  -48.1517  -60.1592 C.3       8 UNK        -0.1977 
     32 N          26.6304  -49.5251  -58.3476 N.am      8 UNK        -0.4342 
     33 C          25.7403  -50.4129  -57.8804 C.2       8 UNK         0.5039 
     34 O          24.5887  -50.5172  -58.3046 O.2       8 UNK        -0.5547 
     35 CA         26.2028  -51.3350  -56.7348 C.3       7 UNK         0.0281 
     36 CB         26.8314  -52.6206  -57.2959 C.3       7 UNK        -0.1963 
     37 N          27.1547  -50.6875  -55.8292 N.am      7 UNK        -0.4444 
     38 C          26.8647  -49.6519  -55.0264 C.2       7 UNK         0.5104 
     39 O          25.7265  -49.2155  -54.8592 O.2       7 UNK        -0.5100 
     40 CA         28.0437  -48.9585  -54.3148 C.3       6 UNK         0.0396 
     41 CB         28.1029  -49.3931  -52.8427 C.3       6 UNK        -0.1801 
     42 N          29.3490  -49.1960  -54.9443 N.am      6 UNK        -0.4747 
     43 C          29.6840  -48.8518  -56.1997 C.2       6 UNK         0.5012 
     44 O          28.9127  -48.2665  -56.9606 O.2       6 UNK        -0.5003 
     45 CA         31.0789  -49.2702  -56.7203 C.3       5 UNK         0.0782 
     46 C46        31.9915  -48.0704  -57.0810 C.3       11 UNK        -0.0868 
     47 S47        32.1840  -46.8177  -55.7633 S.3       11 UNK        -0.2515 
     48 C48        31.5702  -45.3469  -56.6417 C.3       11 UNK         0.0199 
     49 N          31.7608  -50.2316  -55.8485 N.am      5 UNK        -0.4607 
     50 C          31.4135  -51.5206  -55.7227 C.2       4 UNK         0.5031 
     51 O          30.4613  -52.0283  -56.3161 O.2       4 UNK        -0.5119 
     52 CA         32.2496  -52.3791  -54.7588 C.3       4 UNK         0.0263 
     53 CB         33.3722  -53.1007  -55.5204 C.3       4 UNK        -0.1967 
     54 N          32.8320  -51.6105  -53.6556 N.am      4 UNK        -0.4237 
     55 C          32.1377  -51.0249  -52.6726 C.2       3 UNK         0.4908 
     56 O          30.9114  -51.0703  -52.5868 O.2       3 UNK        -0.5102 
     57 CA         32.9372  -50.2287  -51.6295 C.3       3 UNK         0.0241 
     58 CB         33.7574  -51.1543  -50.7088 C.3       3 UNK        -0.1971 
     59 N          33.7582  -49.1574  -52.2107 N.am      3 UNK        -0.4139 
     60 C          34.8353  -49.2554  -53.0074 C.2       2 UNK         0.5016 
     61 O          35.3187  -50.3315  -53.3638 O.2       2 UNK        -0.5319 
     62 CA         35.4657  -47.9503  -53.5327 C.3       2 UNK         0.0286 
     63 CB         35.6685  -48.0087  -55.0572 C.3       2 UNK        -0.1963 
     64 N          34.6741  -46.7606  -53.1990 N.am      2 UNK        -0.4790 
     65 C          34.8634  -46.0090  -52.1044 C.2       1 UNK         0.5024 
     66 O          35.7610  -46.2149  -51.2866 O.2       1 UNK        -0.4888 
     67 H67        29.6359  -46.6238  -51.7786 H         1 UNK         0.0892 
     68 H68        29.9212  -45.1289  -52.6544 H         1 UNK         0.0892 
     69 H69        30.2601  -46.6842  -53.4300 H         1 UNK         0.0892 
     70 H70        32.1547  -44.4153  -53.0044 H         1 UNK         0.3107 
     71 H71        33.7961  -44.7359  -50.7792 H         1 UNK         0.0773 
     72 H72        34.6190  -43.5934  -53.4981 H         1 UNK         0.0680 
     73 H73        35.4661  -43.3539  -51.9973 H         1 UNK         0.0680 
     74 H74        33.8071  -41.4291  -54.3229 H         1 UNK         0.0650 
     75 H75        32.5601  -40.4701  -53.5703 H         1 UNK         0.0650 
     76 H76        33.2332  -43.5441  -55.4448 H         1 UNK         0.1397 
     77 H77        29.1173  -44.6881  -55.7125 H         1 UNK         0.1363 
     78 H78        30.2599  -41.4099  -53.1973 H         1 UNK         0.1355 
     79 H79        27.4581  -43.6526  -54.3649 H         1 UNK         0.0707 
     80 H80        27.9966  -42.7980  -52.9472 H         1 UNK         0.0707 
     81 H81        28.3726  -42.0694  -56.7596 H         1 UNK         0.1034 
     82 H82        27.7756  -40.4418  -56.8627 H         1 UNK         0.1034 
     83 H83        25.3899  -41.3601  -56.7723 H         1 UNK         0.0482 
     84 H84        27.4727  -40.1954  -58.7381 H         1 UNK         0.3460 
     85 H85        26.7579  -40.6178  -60.2692 H         1 UNK         0.3460 
     86 H86        25.1051  -43.4553  -56.1679 H         1 UNK         0.2989 
     87 H87        26.8023  -45.9262  -55.6611 H         1 UNK         0.0559 
     88 H88        24.5571  -45.1112  -55.1655 H         1 UNK         0.0848 
     89 H89        24.4258  -46.7918  -55.6327 H         1 UNK         0.0848 
     90 H90        23.9759  -45.5310  -56.7751 H         1 UNK         0.0848 
     91 H91        27.2314  -47.4653  -57.1607 H         1 UNK         0.3144 
     92 H92        25.5234  -48.7966  -59.9745 H         1 UNK         0.0727 
     93 H93        27.8990  -49.0362  -60.6976 H         1 UNK         0.0790 
     94 H94        28.3898  -47.7838  -59.5569 H         1 UNK         0.0790 
     95 H95        27.3343  -47.3857  -60.9029 H         1 UNK         0.0790 
     96 H96        27.5424  -49.4766  -57.9096 H         1 UNK         0.3215 
     97 H97        25.3189  -51.6090  -56.1546 H         1 UNK         0.0863 
     98 H98        27.0872  -53.3181  -56.4980 H         1 UNK         0.0808 
     99 H99        27.7400  -52.4135  -57.8631 H         1 UNK         0.0808 
    100 H100       26.1387  -53.1342  -57.9642 H         1 UNK         0.0808 
    101 H101       28.1156  -50.9993  -55.8760 H         1 UNK         0.3118 
    102 H102       27.8583  -47.8831  -54.3463 H         1 UNK         0.0546 
    103 H103       28.2397  -50.4710  -52.7476 H         1 UNK         0.0828 
    104 H104       27.1794  -49.1356  -52.3225 H         1 UNK         0.0828 
    105 H105       28.9208  -48.9070  -52.3118 H         1 UNK         0.0828 
    106 H106       30.0287  -49.6994  -54.3889 H         1 UNK         0.3005 
    107 H107       30.8816  -49.7946  -57.6588 H         1 UNK         0.1257 
    108 H108       32.9840  -48.4276  -57.3595 H         1 UNK         0.0775 
    109 H109       31.6062  -47.5924  -57.9832 H         1 UNK         0.0775 
    110 H110       32.3270  -45.0030  -57.3483 H         1 UNK         0.0840 
    111 H111       30.6917  -45.6103  -57.2342 H         1 UNK         0.0840 
    112 H112       32.5453  -49.8835  -55.3182 H         1 UNK         0.2987 
    113 H113       31.5846  -53.1318  -54.3299 H         1 UNK         0.0785 
    114 H114       33.9213  -53.7793  -54.8673 H         1 UNK         0.0798 
    115 H115       34.0866  -52.3967  -55.9494 H         1 UNK         0.0798 
    116 H116       32.9682  -53.6974  -56.3396 H         1 UNK         0.0798 
    117 H117       33.8394  -51.4628  -53.6613 H         1 UNK         0.3079 
    118 H118       32.2034  -49.7218  -51.0005 H         1 UNK         0.0794 
    119 H119       33.1109  -51.8822  -50.2168 H         1 UNK         0.0786 
    120 H120       34.2592  -50.5862  -49.9255 H         1 UNK         0.0786 
    121 H121       34.5173  -51.7150  -51.2534 H         1 UNK         0.0786 
    122 H122       33.4236  -48.2247  -51.9852 H         1 UNK         0.3032 
    123 H123       36.4535  -47.8737  -53.0724 H         1 UNK         0.1094 
    124 H124       34.7383  -48.2162  -55.5837 H         1 UNK         0.0794 
    125 H125       36.0729  -47.0726  -55.4425 H         1 UNK         0.0794 
    126 H126       36.3722  -48.7974  -55.3267 H         1 UNK         0.0794 
    127 H127       33.9062  -46.5345  -53.8182 H         1 UNK         0.3016 
@<TRIPOS>BOND
     1    1    2 1    
     2    1   67 1    
     3    1   68 1    
     4    1   69 1    
     5    2    3 2    
     6    2    4 am   BACKBONE|DICT|INTERRES
     7    4    5 1    
     8    4   70 1    
     9    5    6 1    
    10    5   65 1    
    11    5   71 1    
    12    6    7 1    
    13    6   72 1    
    14    6   73 1    
    15    7    8 1    
    16    8    9 1    
    17    8   74 1    
    18    8   75 1    
    19    9   10 ar   
    20    9   14 ar   
    21   10   11 ar   
    22   10   76 1    
    23   11   12 ar   
    24   11   48 1    
    25   12   13 ar   
    26   12   77 1    
    27   13   14 ar   
    28   13   15 1    
    29   14   78 1    
    30   15   16 1    
    31   15   79 1    
    32   15   80 1    
    33   16   17 1    
    34   17   18 1    
    35   17   81 1    
    36   17   82 1    
    37   18   19 1    
    38   18   22 1    
    39   18   83 1    
    40   19   20 am   BACKBONE|DICT|INTERRES
    41   19   21 2    
    42   20   84 1    
    43   20   85 1    
    44   22   23 am   BACKBONE|DICT|INTERRES
    45   22   86 1    
    46   23   24 2    
    47   23   25 1    
    48   25   26 1    
    49   25   27 1    
    50   25   87 1    
    51   26   88 1    
    52   26   89 1    
    53   26   90 1    
    54   27   28 am   BACKBONE|DICT|INTERRES
    55   27   91 1    
    56   28   29 2    
    57   28   30 1    
    58   30   31 1    
    59   30   32 1    
    60   30   92 1    
    61   31   93 1    
    62   31   94 1    
    63   31   95 1    
    64   32   33 am   BACKBONE|DICT|INTERRES
    65   32   96 1    
    66   33   34 2    
    67   33   35 1    
    68   35   36 1    
    69   35   37 1    
    70   35   97 1    
    71   36   98 1    
    72   36   99 1    
    73   36  100 1    
    74   37   38 am   BACKBONE|DICT|INTERRES
    75   37  101 1    
    76   38   39 2    
    77   38   40 1    
    78   40   41 1    
    79   40   42 1    
    80   40  102 1    
    81   41  103 1    
    82   41  104 1    
    83   41  105 1    
    84   42   43 am   BACKBONE|DICT|INTERRES
    85   42  106 1    
    86   43   44 2    
    87   43   45 1    
    88   45   46 1    
    89   45   49 1    
    90   45  107 1    
    91   46   47 1    
    92   46  108 1    
    93   46  109 1    
    94   47   48 1    
    95   48  110 1    
    96   48  111 1    
    97   49   50 am   BACKBONE|DICT|INTERRES
    98   49  112 1    
    99   50   51 2    
   100   50   52 1    
   101   52   53 1    
   102   52   54 1    
   103   52  113 1    
   104   53  114 1    
   105   53  115 1    
   106   53  116 1    
   107   54   55 am   BACKBONE|DICT|INTERRES
   108   54  117 1    
   109   55   56 2    
   110   55   57 1    
   111   57   58 1    
   112   57   59 1    
   113   57  118 1    
   114   58  119 1    
   115   58  120 1    
   116   58  121 1    
   117   59   60 am   BACKBONE|DICT|INTERRES
   118   59  122 1    
   119   60   61 2    
   120   60   62 1    
   121   62   63 1    
   122   62   64 1    
   123   62  123 1    
   124   63  124 1    
   125   63  125 1    
   126   63  126 1    
   127   64   65 am   BACKBONE|DICT|INTERRES
   128   64  127 1    
   129   65   66 2    
@<TRIPOS>SUBSTRUCTURE
     1 UNK         1 GROUP             0       ****    0 ROOT    
