@<TRIPOS>MOLECULE
3R134
127   129    1
SMALL
USER_CHARGES


@<TRIPOS>ATOM
      1 CA         29.8708  -44.6893  -49.6056 C.3       0 UNK        -0.1968 
      2 C          31.2493  -45.2676  -49.3184 C.2       0 UNK         0.4852 
      3 O          31.5096  -45.7000  -48.1941 O.2       0 UNK        -0.5359 
      4 N          32.1321  -45.2676  -50.3244 N.am      1 UNK        -0.4300 
      5 CA         33.4749  -45.8524  -50.2717 C.3       1 UNK         0.0863 
      6 C6         34.4461  -45.1112  -51.2310 C.3       11 UNK        -0.0953 
      7 S7         34.0002  -45.2748  -52.9915 S.3       11 UNK        -0.2369 
      8 C8         33.3791  -43.6091  -53.3871 C.3       11 UNK         0.0226 
      9 C9         32.5093  -43.6255  -54.6371 C.ar      11 UNK        -0.0699 
     10 C10        33.0191  -44.1124  -55.8425 C.ar      11 UNK        -0.0804 
     11 C11        32.2161  -44.1714  -56.9827 C.ar      11 UNK        -0.0871 
     12 C12        30.8962  -43.7138  -56.9214 C.ar      11 UNK        -0.1008 
     13 C13        30.3732  -43.1961  -55.7255 C.ar      11 UNK        -0.0735 
     14 C14        31.1908  -43.1629  -54.5900 C.ar      11 UNK        -0.0945 
     15 C15        28.9336  -42.6912  -55.5818 C.3       11 UNK         0.0169 
     16 S16        27.9260  -42.7053  -57.1050 S.3       11 UNK        -0.2669 
     17 C17        26.2482  -42.9408  -56.4171 C.3       11 UNK        -0.0850 
     18 CA         25.9144  -44.4398  -56.1552 C.3       10 UNK         0.0855 
     19 C          24.5281  -44.6618  -55.4793 C.2       10 UNK         0.5543 
     20 N          23.9234  -45.8389  -55.5926 N.am      10 UNK        -0.7343 
     21 O          23.9972  -43.7658  -54.8271 O.2       10 UNK        -0.5027 
     22 N          26.1698  -45.2931  -57.3248 N.am      10 UNK        -0.4495 
     23 C          25.5142  -45.2615  -58.4920 C.2       10 UNK         0.4903 
     24 O          24.5437  -44.5407  -58.7257 O.2       10 UNK        -0.4860 
     25 CA         26.0362  -46.1964  -59.5903 C.3       9 UNK         0.0227 
     26 CB         27.2515  -45.5714  -60.2975 C.3       9 UNK        -0.1964 
     27 N          26.4071  -47.4972  -59.0273 N.am      9 UNK        -0.4231 
     28 C          25.7315  -48.6341  -59.2370 C.2       9 UNK         0.5014 
     29 O          24.7600  -48.7300  -59.9899 O.2       9 UNK        -0.5270 
     30 CA         26.2124  -49.8898  -58.4896 C.3       8 UNK         0.0284 
     31 CB         27.2784  -50.6347  -59.3102 C.3       8 UNK        -0.1977 
     32 N          26.7157  -49.6537  -57.1324 N.am      8 UNK        -0.4342 
     33 C          25.9751  -49.2055  -56.1066 C.2       8 UNK         0.5039 
     34 O          24.8290  -48.7701  -56.2221 O.2       8 UNK        -0.5547 
     35 CA         26.6203  -49.2595  -54.7149 C.3       7 UNK         0.0281 
     36 CB         26.8537  -50.7125  -54.2654 C.3       7 UNK        -0.1963 
     37 N          27.8881  -48.5380  -54.7234 N.am      7 UNK        -0.4444 
     38 C          28.0494  -47.2843  -54.2817 C.2       7 UNK         0.5104 
     39 O          27.1869  -46.6545  -53.6699 O.2       7 UNK        -0.5100 
     40 CA         29.3910  -46.5976  -54.5942 C.3       6 UNK         0.0396 
     41 CB         30.2889  -46.5765  -53.3495 C.3       6 UNK        -0.1801 
     42 N          30.1127  -47.1990  -55.7211 N.am      6 UNK        -0.4747 
     43 C          29.6722  -47.1813  -56.9900 C.2       6 UNK         0.5012 
     44 O          28.6183  -46.6460  -57.3317 O.2       6 UNK        -0.5003 
     45 CA         30.4610  -47.9725  -58.0516 C.3       5 UNK         0.0782 
     46 C46        31.3192  -47.0571  -58.9592 C.3       11 UNK        -0.0868 
     47 S47        32.9154  -46.5404  -58.2376 S.3       11 UNK        -0.2515 
     48 C48        32.7957  -44.7228  -58.2756 C.3       11 UNK         0.0199 
     49 N          31.2096  -49.1056  -57.5012 N.am      5 UNK        -0.4607 
     50 C          30.6617  -50.1523  -56.8689 C.2       4 UNK         0.5031 
     51 O          29.4469  -50.2953  -56.7168 O.2       4 UNK        -0.5119 
     52 CA         31.6267  -51.1856  -56.2633 C.3       4 UNK         0.0263 
     53 CB         31.8694  -52.3326  -57.2568 C.3       4 UNK        -0.1967 
     54 N          32.9161  -50.6273  -55.8318 N.am      4 UNK        -0.4237 
     55 C          33.0631  -49.6744  -54.8996 C.2       3 UNK         0.4908 
     56 O          32.1198  -49.1041  -54.3498 O.2       3 UNK        -0.5102 
     57 CA         34.5024  -49.2536  -54.5630 C.3       3 UNK         0.0241 
     58 CB         34.8964  -48.0091  -55.3748 C.3       3 UNK        -0.1971 
     59 N          34.6565  -48.9736  -53.1324 N.am      3 UNK        -0.4139 
     60 C          34.6419  -49.9120  -52.1736 C.2       2 UNK         0.5016 
     61 O          34.5472  -51.1181  -52.4088 O.2       2 UNK        -0.5319 
     62 CA         34.7891  -49.4569  -50.7068 C.3       2 UNK         0.0286 
     63 CB         36.1629  -49.8719  -50.1518 C.3       2 UNK        -0.1963 
     64 N          34.6127  -48.0163  -50.4936 N.am      2 UNK        -0.4790 
     65 C          33.4323  -47.3819  -50.5115 C.2       1 UNK         0.5024 
     66 O          32.3616  -47.9588  -50.7167 O.2       1 UNK        -0.4888 
     67 H67        29.8130  -44.2438  -50.5978 H         1 UNK         0.0892 
     68 H68        29.1165  -45.4719  -49.5397 H         1 UNK         0.0892 
     69 H69        29.6263  -43.9177  -48.8764 H         1 UNK         0.0892 
     70 H70        31.8480  -44.9426  -51.2359 H         1 UNK         0.3107 
     71 H71        33.8618  -45.7158  -49.2595 H         1 UNK         0.0773 
     72 H72        34.4894  -44.0537  -50.9652 H         1 UNK         0.0680 
     73 H73        35.4672  -45.4747  -51.1057 H         1 UNK         0.0680 
     74 H74        34.2238  -42.9359  -53.5387 H         1 UNK         0.0650 
     75 H75        32.8163  -43.2203  -52.5374 H         1 UNK         0.0650 
     76 H76        34.0385  -44.4712  -55.8865 H         1 UNK         0.1397 
     77 H77        30.2851  -43.7732  -57.8100 H         1 UNK         0.1363 
     78 H78        30.7916  -42.7813  -53.6602 H         1 UNK         0.1355 
     79 H79        28.9506  -41.6706  -55.1968 H         1 UNK         0.0707 
     80 H80        28.4390  -43.2966  -54.8217 H         1 UNK         0.0707 
     81 H81        26.1598  -42.3576  -55.4986 H         1 UNK         0.1034 
     82 H82        25.5276  -42.5108  -57.1146 H         1 UNK         0.1034 
     83 H83        26.6270  -44.7814  -55.4072 H         1 UNK         0.0482 
     84 H84        23.0304  -45.9756  -55.1475 H         1 UNK         0.3460 
     85 H85        24.3621  -46.6092  -56.0799 H         1 UNK         0.3460 
     86 H86        27.0085  -45.8638  -57.2591 H         1 UNK         0.2989 
     87 H87        25.2426  -46.3094  -60.3316 H         1 UNK         0.0559 
     88 H88        28.0766  -45.3850  -59.6099 H         1 UNK         0.0848 
     89 H89        26.9866  -44.6144  -60.7487 H         1 UNK         0.0848 
     90 H90        27.6191  -46.2155  -61.0960 H         1 UNK         0.0848 
     91 H91        27.1787  -47.4969  -58.3689 H         1 UNK         0.3144 
     92 H92        25.3483  -50.5509  -58.3939 H         1 UNK         0.0727 
     93 H93        28.1838  -50.0420  -59.4349 H         1 UNK         0.0790 
     94 H94        26.9064  -50.8736  -60.3078 H         1 UNK         0.0790 
     95 H95        27.5585  -51.5759  -58.8364 H         1 UNK         0.0790 
     96 H96        27.6651  -49.9735  -56.9451 H         1 UNK         0.3215 
     97 H97        25.9255  -48.8005  -54.0075 H         1 UNK         0.0863 
     98 H98        27.2428  -50.7505  -53.2478 H         1 UNK         0.0808 
     99 H99        27.5603  -51.2366  -54.9102 H         1 UNK         0.0808 
    100 H100       25.9207  -51.2776  -54.2758 H         1 UNK         0.0808 
    101 H101       28.6545  -48.9695  -55.2259 H         1 UNK         0.3118 
    102 H102       29.1663  -45.5668  -54.8661 H         1 UNK         0.0546 
    103 H103       29.8189  -46.0157  -52.5415 H         1 UNK         0.0828 
    104 H104       31.2463  -46.1049  -53.5634 H         1 UNK         0.0828 
    105 H105       30.4875  -47.5805  -52.9732 H         1 UNK         0.0828 
    106 H106       30.9587  -47.7109  -55.4947 H         1 UNK         0.3005 
    107 H107       29.6970  -48.4071  -58.6983 H         1 UNK         0.1257 
    108 H108       30.7450  -46.1844  -59.2766 H         1 UNK         0.0775 
    109 H109       31.5513  -47.5934  -59.8805 H         1 UNK         0.0775 
    110 H110       33.7976  -44.3146  -58.4170 H         1 UNK         0.0840 
    111 H111       32.2176  -44.3934  -59.1402 H         1 UNK         0.0840 
    112 H112       32.2154  -49.0443  -57.5650 H         1 UNK         0.2987 
    113 H113       31.1376  -51.5979  -55.3779 H         1 UNK         0.0785 
    114 H114       30.9257  -52.7777  -57.5769 H         1 UNK         0.0798 
    115 H115       32.4633  -53.1289  -56.8076 H         1 UNK         0.0798 
    116 H116       32.3881  -51.9892  -58.1531 H         1 UNK         0.0798 
    117 H117       33.7434  -51.0322  -56.2470 H         1 UNK         0.3079 
    118 H118       35.1838  -50.0670  -54.8221 H         1 UNK         0.0794 
    119 H119       34.1877  -47.1922  -55.2322 H         1 UNK         0.0786 
    120 H120       34.9175  -48.2321  -56.4422 H         1 UNK         0.0786 
    121 H121       35.8876  -47.6472  -55.1008 H         1 UNK         0.0786 
    122 H122       34.6833  -48.0030  -52.8562 H         1 UNK         0.3032 
    123 H123       34.0198  -49.9835  -50.1364 H         1 UNK         0.1094 
    124 H124       36.9785  -49.3750  -50.6789 H         1 UNK         0.0794 
    125 H125       36.2517  -49.6346  -49.0914 H         1 UNK         0.0794 
    126 H126       36.3180  -50.9472  -50.2530 H         1 UNK         0.0794 
    127 H127       35.4525  -47.4816  -50.3212 H         1 UNK         0.3016 
@<TRIPOS>BOND
     1    1    2 1    
     2    1   67 1    
     3    1   68 1    
     4    1   69 1    
     5    2    3 2    
     6    2    4 am   BACKBONE|DICT|INTERRES
     7    4    5 1    
     8    4   70 1    
     9    5    6 1    
    10    5   65 1    
    11    5   71 1    
    12    6    7 1    
    13    6   72 1    
    14    6   73 1    
    15    7    8 1    
    16    8    9 1    
    17    8   74 1    
    18    8   75 1    
    19    9   10 ar   
    20    9   14 ar   
    21   10   11 ar   
    22   10   76 1    
    23   11   12 ar   
    24   11   48 1    
    25   12   13 ar   
    26   12   77 1    
    27   13   14 ar   
    28   13   15 1    
    29   14   78 1    
    30   15   16 1    
    31   15   79 1    
    32   15   80 1    
    33   16   17 1    
    34   17   18 1    
    35   17   81 1    
    36   17   82 1    
    37   18   19 1    
    38   18   22 1    
    39   18   83 1    
    40   19   20 am   BACKBONE|DICT|INTERRES
    41   19   21 2    
    42   20   84 1    
    43   20   85 1    
    44   22   23 am   BACKBONE|DICT|INTERRES
    45   22   86 1    
    46   23   24 2    
    47   23   25 1    
    48   25   26 1    
    49   25   27 1    
    50   25   87 1    
    51   26   88 1    
    52   26   89 1    
    53   26   90 1    
    54   27   28 am   BACKBONE|DICT|INTERRES
    55   27   91 1    
    56   28   29 2    
    57   28   30 1    
    58   30   31 1    
    59   30   32 1    
    60   30   92 1    
    61   31   93 1    
    62   31   94 1    
    63   31   95 1    
    64   32   33 am   BACKBONE|DICT|INTERRES
    65   32   96 1    
    66   33   34 2    
    67   33   35 1    
    68   35   36 1    
    69   35   37 1    
    70   35   97 1    
    71   36   98 1    
    72   36   99 1    
    73   36  100 1    
    74   37   38 am   BACKBONE|DICT|INTERRES
    75   37  101 1    
    76   38   39 2    
    77   38   40 1    
    78   40   41 1    
    79   40   42 1    
    80   40  102 1    
    81   41  103 1    
    82   41  104 1    
    83   41  105 1    
    84   42   43 am   BACKBONE|DICT|INTERRES
    85   42  106 1    
    86   43   44 2    
    87   43   45 1    
    88   45   46 1    
    89   45   49 1    
    90   45  107 1    
    91   46   47 1    
    92   46  108 1    
    93   46  109 1    
    94   47   48 1    
    95   48  110 1    
    96   48  111 1    
    97   49   50 am   BACKBONE|DICT|INTERRES
    98   49  112 1    
    99   50   51 2    
   100   50   52 1    
   101   52   53 1    
   102   52   54 1    
   103   52  113 1    
   104   53  114 1    
   105   53  115 1    
   106   53  116 1    
   107   54   55 am   BACKBONE|DICT|INTERRES
   108   54  117 1    
   109   55   56 2    
   110   55   57 1    
   111   57   58 1    
   112   57   59 1    
   113   57  118 1    
   114   58  119 1    
   115   58  120 1    
   116   58  121 1    
   117   59   60 am   BACKBONE|DICT|INTERRES
   118   59  122 1    
   119   60   61 2    
   120   60   62 1    
   121   62   63 1    
   122   62   64 1    
   123   62  123 1    
   124   63  124 1    
   125   63  125 1    
   126   63  126 1    
   127   64   65 am   BACKBONE|DICT|INTERRES
   128   64  127 1    
   129   65   66 2    
@<TRIPOS>SUBSTRUCTURE
     1 UNK         1 GROUP             0       ****    0 ROOT    
