@<TRIPOS>MOLECULE
3R134
127   129    1
SMALL
USER_CHARGES


@<TRIPOS>ATOM
      1 CA         35.5524  -42.5939  -52.8286 C.3       0 UNK        -0.1968 
      2 C          35.9632  -43.8290  -53.6173 C.2       0 UNK         0.4852 
      3 O          37.1449  -43.9932  -53.9262 O.2       0 UNK        -0.5359 
      4 N          34.9949  -44.6903  -53.9525 N.am      1 UNK        -0.4300 
      5 CA         35.2009  -45.9524  -54.6692 C.3       1 UNK         0.0863 
      6 C6         33.8649  -46.5580  -55.1683 C.3       11 UNK        -0.0953 
      7 S7         32.9100  -45.4586  -56.2611 S.3       11 UNK        -0.2369 
      8 C8         31.2275  -46.0933  -55.9670 C.3       11 UNK         0.0226 
      9 C9         30.4201  -45.2122  -55.0225 C.ar      11 UNK        -0.0699 
     10 C10        30.8475  -44.9668  -53.7125 C.ar      11 UNK        -0.0804 
     11 C11        30.0556  -44.2160  -52.8362 C.ar      11 UNK        -0.0871 
     12 C12        28.8461  -43.6789  -53.2873 C.ar      11 UNK        -0.1008 
     13 C13        28.4089  -43.9211  -54.5910 C.ar      11 UNK        -0.0735 
     14 C14        29.1975  -44.6889  -55.4502 C.ar      11 UNK        -0.0945 
     15 C15        27.0598  -43.4054  -55.0591 C.3       11 UNK         0.0169 
     16 S16        25.7816  -44.6566  -54.7400 S.3       11 UNK        -0.2669 
     17 C17        24.7218  -44.5220  -56.2168 C.3       11 UNK        -0.0850 
     18 CA         25.1308  -45.5491  -57.3159 C.3       10 UNK         0.0855 
     19 C          23.9666  -45.9324  -58.2842 C.2       10 UNK         0.5543 
     20 N          24.2362  -46.3069  -59.5305 N.am      10 UNK        -0.7343 
     21 O          22.7997  -45.9192  -57.8993 O.2       10 UNK        -0.5027 
     22 N          26.3898  -45.2002  -57.9976 N.am      10 UNK        -0.4495 
     23 C          26.5641  -44.1605  -58.8292 C.2       10 UNK         0.4903 
     24 O          25.7326  -43.2675  -58.9941 O.2       10 UNK        -0.4860 
     25 CA         27.8655  -44.1093  -59.6538 C.3       9 UNK         0.0227 
     26 CB         28.8350  -43.0596  -59.0849 C.3       9 UNK        -0.1964 
     27 N          28.5578  -45.3952  -59.7823 N.am      9 UNK        -0.4231 
     28 C          28.0563  -46.5045  -60.3454 C.2       9 UNK         0.5014 
     29 O          26.9348  -46.5727  -60.8523 O.2       9 UNK        -0.5270 
     30 CA         28.9361  -47.7679  -60.3035 C.3       8 UNK         0.0284 
     31 CB         30.4412  -47.4766  -60.1028 C.3       8 UNK        -0.1977 
     32 N          28.4747  -48.7407  -59.3046 N.am      8 UNK        -0.4342 
     33 C          28.2424  -48.5252  -58.0008 C.2       8 UNK         0.5039 
     34 O          28.3130  -47.4192  -57.4567 O.2       8 UNK        -0.5547 
     35 CA         27.9307  -49.7798  -57.1653 C.3       7 UNK         0.0281 
     36 CB         29.2125  -50.6020  -56.9456 C.3       7 UNK        -0.1963 
     37 N          27.3847  -49.4319  -55.8548 N.am      7 UNK        -0.4444 
     38 C          26.1149  -49.0590  -55.6282 C.2       7 UNK         0.5104 
     39 O          25.2350  -49.0866  -56.4891 O.2       7 UNK        -0.5100 
     40 CA         25.7571  -48.5725  -54.2125 C.3       6 UNK         0.0396 
     41 CB         25.1329  -49.7266  -53.4028 C.3       6 UNK        -0.1801 
     42 N          26.9474  -48.0433  -53.5512 N.am      6 UNK        -0.4747 
     43 C          27.0690  -47.4810  -52.3468 C.2       6 UNK         0.5012 
     44 O          26.1347  -47.2800  -51.5691 O.2       6 UNK        -0.5003 
     45 CA         28.5190  -47.1403  -51.9469 C.3       5 UNK         0.0782 
     46 C46        28.6108  -46.1319  -50.7710 C.3       11 UNK        -0.0868 
     47 S47        30.3359  -45.6133  -50.4506 S.3       11 UNK        -0.2515 
     48 C48        30.4658  -44.0470  -51.3804 C.3       11 UNK         0.0199 
     49 N          29.2868  -48.3644  -51.6865 N.am      5 UNK        -0.4607 
     50 C          29.7524  -49.2082  -52.6161 C.2       4 UNK         0.5031 
     51 O          29.5602  -49.0747  -53.8290 O.2       4 UNK        -0.5119 
     52 CA         30.5063  -50.4419  -52.0915 C.3       4 UNK         0.0263 
     53 CB         29.5206  -51.5981  -51.8553 C.3       4 UNK        -0.1967 
     54 N          31.5547  -50.8898  -53.0116 N.am      4 UNK        -0.4237 
     55 C          32.6476  -50.1818  -53.3251 C.2       3 UNK         0.4908 
     56 O          32.9172  -49.0845  -52.8311 O.2       3 UNK        -0.5102 
     57 CA         33.5733  -50.8064  -54.3861 C.3       3 UNK         0.0241 
     58 CB         32.9032  -50.7775  -55.7719 C.3       3 UNK        -0.1971 
     59 N          34.8485  -50.0951  -54.4758 N.am      3 UNK        -0.4139 
     60 C          35.8703  -50.1979  -53.6138 C.2       2 UNK         0.5016 
     61 O          35.9183  -51.0184  -52.6963 O.2       2 UNK        -0.5319 
     62 CA         37.0356  -49.2064  -53.8119 C.3       2 UNK         0.0286 
     63 CB         38.1454  -49.8389  -54.6675 C.3       2 UNK        -0.1963 
     64 N          36.5896  -47.9556  -54.4391 N.am      2 UNK        -0.4790 
     65 C          35.9153  -46.9975  -53.7867 C.2       1 UNK         0.5024 
     66 O          35.7814  -46.9712  -52.5605 O.2       1 UNK        -0.4888 
     67 H67        34.4791  -42.5676  -52.6407 H         1 UNK         0.0892 
     68 H68        36.0652  -42.5755  -51.8673 H         1 UNK         0.0892 
     69 H69        35.8223  -41.6916  -53.3767 H         1 UNK         0.0892 
     70 H70        34.0447  -44.5026  -53.6710 H         1 UNK         0.3107 
     71 H71        35.8343  -45.7442  -55.5344 H         1 UNK         0.0773 
     72 H72        33.2437  -46.8449  -54.3182 H         1 UNK         0.0680 
     73 H73        34.0450  -47.4756  -55.7303 H         1 UNK         0.0680 
     74 H74        31.2572  -47.1118  -55.5761 H         1 UNK         0.0650 
     75 H75        30.7280  -46.1624  -56.9332 H         1 UNK         0.0650 
     76 H76        31.7696  -45.4002  -53.3543 H         1 UNK         0.1397 
     77 H77        28.2209  -43.1101  -52.6124 H         1 UNK         0.1363 
     78 H78        28.8382  -44.9105  -56.4447 H         1 UNK         0.1355 
     79 H79        26.7987  -42.4808  -54.5423 H         1 UNK         0.0707 
     80 H80        27.1070  -43.1613  -56.1203 H         1 UNK         0.0707 
     81 H81        23.7046  -44.7081  -55.8687 H         1 UNK         0.1034 
     82 H82        24.7167  -43.4998  -56.5960 H         1 UNK         0.1034 
     83 H83        25.3475  -46.4854  -56.8063 H         1 UNK         0.0482 
     84 H84        25.1908  -46.3409  -59.8726 H         1 UNK         0.3460 
     85 H85        23.4769  -46.5614  -60.1415 H         1 UNK         0.3460 
     86 H86        27.1282  -45.8946  -57.9165 H         1 UNK         0.2989 
     87 H87        27.5861  -43.7954  -60.6615 H         1 UNK         0.0559 
     88 H88        28.3490  -42.0868  -58.9971 H         1 UNK         0.0848 
     89 H89        29.7010  -42.9266  -59.7335 H         1 UNK         0.0848 
     90 H90        29.1979  -43.3296  -58.0939 H         1 UNK         0.0848 
     91 H91        29.4723  -45.4611  -59.3605 H         1 UNK         0.3144 
     92 H92        28.8235  -48.2448  -61.2784 H         1 UNK         0.0727 
     93 H93        31.0314  -48.3839  -60.2326 H         1 UNK         0.0790 
     94 H94        30.6616  -47.0885  -59.1088 H         1 UNK         0.0790 
     95 H95        30.8066  -46.7542  -60.8342 H         1 UNK         0.0790 
     96 H96        28.3488  -49.6809  -59.6536 H         1 UNK         0.3215 
     97 H97        27.2016  -50.3892  -57.7039 H         1 UNK         0.0863 
     98 H98        29.0183  -51.4888  -56.3420 H         1 UNK         0.0808 
     99 H99        29.9790  -50.0143  -56.4384 H         1 UNK         0.0808 
    100 H100       29.6360  -50.9425  -57.8912 H         1 UNK         0.0808 
    101 H101       28.0652  -49.4020  -55.1041 H         1 UNK         0.3118 
    102 H102       25.0314  -47.7628  -54.3077 H         1 UNK         0.0546 
    103 H103       25.8549  -50.5225  -53.2164 H         1 UNK         0.0828 
    104 H104       24.2909  -50.1677  -53.9379 H         1 UNK         0.0828 
    105 H105       24.7522  -49.3864  -52.4402 H         1 UNK         0.0828 
    106 H106       27.8103  -48.1388  -54.0749 H         1 UNK         0.3005 
    107 H107       28.9556  -46.6629  -52.8236 H         1 UNK         0.1257 
    108 H108       28.2109  -46.5739  -49.8567 H         1 UNK         0.0775 
    109 H109       28.0027  -45.2473  -50.9685 H         1 UNK         0.0775 
    110 H110       29.8536  -43.2893  -50.8887 H         1 UNK         0.0840 
    111 H111       31.4947  -43.6876  -51.3319 H         1 UNK         0.0840 
    112 H112       29.4684  -48.5634  -50.7137 H         1 UNK         0.2987 
    113 H113       30.9826  -50.1843  -51.1429 H         1 UNK         0.0785 
    114 H114       30.0235  -52.4719  -51.4403 H         1 UNK         0.0798 
    115 H115       29.0259  -51.9011  -52.7794 H         1 UNK         0.0798 
    116 H116       28.7403  -51.3106  -51.1491 H         1 UNK         0.0798 
    117 H117       31.3899  -51.7645  -53.4874 H         1 UNK         0.3079 
    118 H118       33.7708  -51.8435  -54.1063 H         1 UNK         0.0794 
    119 H119       31.9943  -51.3799  -55.7832 H         1 UNK         0.0786 
    120 H120       33.5615  -51.1822  -56.5410 H         1 UNK         0.0786 
    121 H121       32.6256  -49.7641  -56.0662 H         1 UNK         0.0786 
    122 H122       34.9060  -49.3766  -55.1792 H         1 UNK         0.3032 
    123 H123       37.4487  -48.9822  -52.8254 H         1 UNK         0.1094 
    124 H124       38.9991  -49.1685  -54.7682 H         1 UNK         0.0794 
    125 H125       38.5109  -50.7599  -54.2107 H         1 UNK         0.0794 
    126 H126       37.7939  -50.0898  -55.6691 H         1 UNK         0.0794 
    127 H127       36.6969  -47.8857  -55.4417 H         1 UNK         0.3016 
@<TRIPOS>BOND
     1    1    2 1    
     2    1   67 1    
     3    1   68 1    
     4    1   69 1    
     5    2    3 2    
     6    2    4 am   BACKBONE|DICT|INTERRES
     7    4    5 1    
     8    4   70 1    
     9    5    6 1    
    10    5   65 1    
    11    5   71 1    
    12    6    7 1    
    13    6   72 1    
    14    6   73 1    
    15    7    8 1    
    16    8    9 1    
    17    8   74 1    
    18    8   75 1    
    19    9   10 ar   
    20    9   14 ar   
    21   10   11 ar   
    22   10   76 1    
    23   11   12 ar   
    24   11   48 1    
    25   12   13 ar   
    26   12   77 1    
    27   13   14 ar   
    28   13   15 1    
    29   14   78 1    
    30   15   16 1    
    31   15   79 1    
    32   15   80 1    
    33   16   17 1    
    34   17   18 1    
    35   17   81 1    
    36   17   82 1    
    37   18   19 1    
    38   18   22 1    
    39   18   83 1    
    40   19   20 am   BACKBONE|DICT|INTERRES
    41   19   21 2    
    42   20   84 1    
    43   20   85 1    
    44   22   23 am   BACKBONE|DICT|INTERRES
    45   22   86 1    
    46   23   24 2    
    47   23   25 1    
    48   25   26 1    
    49   25   27 1    
    50   25   87 1    
    51   26   88 1    
    52   26   89 1    
    53   26   90 1    
    54   27   28 am   BACKBONE|DICT|INTERRES
    55   27   91 1    
    56   28   29 2    
    57   28   30 1    
    58   30   31 1    
    59   30   32 1    
    60   30   92 1    
    61   31   93 1    
    62   31   94 1    
    63   31   95 1    
    64   32   33 am   BACKBONE|DICT|INTERRES
    65   32   96 1    
    66   33   34 2    
    67   33   35 1    
    68   35   36 1    
    69   35   37 1    
    70   35   97 1    
    71   36   98 1    
    72   36   99 1    
    73   36  100 1    
    74   37   38 am   BACKBONE|DICT|INTERRES
    75   37  101 1    
    76   38   39 2    
    77   38   40 1    
    78   40   41 1    
    79   40   42 1    
    80   40  102 1    
    81   41  103 1    
    82   41  104 1    
    83   41  105 1    
    84   42   43 am   BACKBONE|DICT|INTERRES
    85   42  106 1    
    86   43   44 2    
    87   43   45 1    
    88   45   46 1    
    89   45   49 1    
    90   45  107 1    
    91   46   47 1    
    92   46  108 1    
    93   46  109 1    
    94   47   48 1    
    95   48  110 1    
    96   48  111 1    
    97   49   50 am   BACKBONE|DICT|INTERRES
    98   49  112 1    
    99   50   51 2    
   100   50   52 1    
   101   52   53 1    
   102   52   54 1    
   103   52  113 1    
   104   53  114 1    
   105   53  115 1    
   106   53  116 1    
   107   54   55 am   BACKBONE|DICT|INTERRES
   108   54  117 1    
   109   55   56 2    
   110   55   57 1    
   111   57   58 1    
   112   57   59 1    
   113   57  118 1    
   114   58  119 1    
   115   58  120 1    
   116   58  121 1    
   117   59   60 am   BACKBONE|DICT|INTERRES
   118   59  122 1    
   119   60   61 2    
   120   60   62 1    
   121   62   63 1    
   122   62   64 1    
   123   62  123 1    
   124   63  124 1    
   125   63  125 1    
   126   63  126 1    
   127   64   65 am   BACKBONE|DICT|INTERRES
   128   64  127 1    
   129   65   66 2    
@<TRIPOS>SUBSTRUCTURE
     1 UNK         1 GROUP             0       ****    0 ROOT    
