@<TRIPOS>MOLECULE
3R134
127   129    1
SMALL
USER_CHARGES


@<TRIPOS>ATOM
      1 CA         36.5904  -44.8001  -49.9426 C.3       0 UNK        -0.1968 
      2 C          36.4787  -44.6144  -51.4491 C.2       0 UNK         0.4852 
      3 O          37.4514  -44.2067  -52.0868 O.2       0 UNK        -0.5359 
      4 N          35.3004  -44.9034  -52.0167 N.am      1 UNK        -0.4300 
      5 CA         35.0272  -44.8552  -53.4574 C.3       1 UNK         0.0863 
      6 C6         33.5240  -44.5824  -53.7377 C.3       11 UNK        -0.0953 
      7 S7         33.2906  -43.3572  -55.0680 S.3       11 UNK        -0.2369 
      8 C8         32.1991  -42.1418  -54.2610 C.3       11 UNK         0.0226 
      9 C9         30.8215  -42.7220  -53.9687 C.ar      11 UNK        -0.0699 
     10 C10        30.3939  -42.9175  -52.6510 C.ar      11 UNK        -0.0804 
     11 C11        29.1271  -43.4503  -52.3874 C.ar      11 UNK        -0.0871 
     12 C12        28.2862  -43.7817  -53.4527 C.ar      11 UNK        -0.1008 
     13 C13        28.7199  -43.6305  -54.7713 C.ar      11 UNK        -0.0735 
     14 C14        29.9770  -43.0759  -55.0239 C.ar      11 UNK        -0.0945 
     15 C15        27.8440  -44.1049  -55.9185 C.3       11 UNK         0.0169 
     16 S16        27.8771  -45.9206  -56.0798 S.3       11 UNK        -0.2669 
     17 C17        29.6381  -46.2837  -56.4229 C.3       11 UNK        -0.0850 
     18 CA         30.1669  -45.7055  -57.7703 C.3       10 UNK         0.0855 
     19 C          31.6814  -45.9974  -57.9968 C.2       10 UNK         0.5543 
     20 N          32.1446  -46.1224  -59.2344 N.am      10 UNK        -0.7343 
     21 O          32.4535  -46.0833  -57.0462 O.2       10 UNK        -0.5027 
     22 N          29.2851  -46.0103  -58.9132 N.am      10 UNK        -0.4495 
     23 C          29.0475  -47.2221  -59.4283 C.2       10 UNK         0.4903 
     24 O          29.6137  -48.2554  -59.0707 O.2       10 UNK        -0.4860 
     25 CA         27.9245  -47.2935  -60.4751 C.3       9 UNK         0.0227 
     26 CB         28.1760  -48.3906  -61.5246 C.3       9 UNK        -0.1964 
     27 N          26.6800  -47.5810  -59.7702 N.am      9 UNK        -0.4231 
     28 C          25.9407  -46.6875  -59.1036 C.2       9 UNK         0.5014 
     29 O          26.0663  -45.4688  -59.2328 O.2       9 UNK        -0.5270 
     30 CA         24.9293  -47.2381  -58.0785 C.3       8 UNK         0.0284 
     31 CB         23.5951  -47.6198  -58.7488 C.3       8 UNK        -0.1977 
     32 N          25.4607  -48.3302  -57.2425 N.am      8 UNK        -0.4342 
     33 C          25.8115  -49.5737  -57.6063 C.2       8 UNK         0.5039 
     34 O          25.6915  -50.0075  -58.7534 O.2       8 UNK        -0.5547 
     35 CA         26.4585  -50.4781  -56.5436 C.3       7 UNK         0.0281 
     36 CB         27.9716  -50.5839  -56.8007 C.3       7 UNK        -0.1963 
     37 N          26.2259  -50.0471  -55.1603 N.am      7 UNK        -0.4444 
     38 C          25.0495  -50.1666  -54.5235 C.2       7 UNK         0.5104 
     39 O          24.0339  -50.6073  -55.0629 O.2       7 UNK        -0.5100 
     40 CA         24.9730  -49.7590  -53.0377 C.3       6 UNK         0.0396 
     41 CB         24.8158  -51.0047  -52.1500 C.3       6 UNK        -0.1801 
     42 N          26.1278  -48.9928  -52.5678 N.am      6 UNK        -0.4747 
     43 C          26.3697  -47.7055  -52.8521 C.2       6 UNK         0.5012 
     44 O          25.5997  -46.9988  -53.5026 O.2       6 UNK        -0.5003 
     45 CA         27.7012  -47.1127  -52.3365 C.3       5 UNK         0.0782 
     46 C46        27.4464  -46.2511  -51.0732 C.3       11 UNK        -0.0868 
     47 S47        28.9433  -45.4134  -50.4417 S.3       11 UNK        -0.2515 
     48 C48        28.6747  -43.6840  -50.9539 C.3       11 UNK         0.0199 
     49 N          28.7594  -48.1121  -52.1216 N.am      5 UNK        -0.4607 
     50 C          29.2624  -48.9107  -53.0710 C.2       4 UNK         0.5031 
     51 O          28.7986  -48.9953  -54.2083 O.2       4 UNK        -0.5119 
     52 CA         30.4414  -49.8097  -52.6661 C.3       4 UNK         0.0263 
     53 CB         29.9234  -51.1643  -52.1557 C.3       4 UNK        -0.1967 
     54 N          31.3580  -50.0373  -53.7870 N.am      4 UNK        -0.4237 
     55 C          32.0839  -49.0772  -54.3748 C.2       3 UNK         0.4908 
     56 O          32.1149  -47.9085  -53.9823 O.2       3 UNK        -0.5102 
     57 CA         32.9090  -49.5001  -55.5980 C.3       3 UNK         0.0241 
     58 CB         32.0052  -49.7963  -56.8079 C.3       3 UNK        -0.1971 
     59 N          33.8303  -48.4211  -55.9425 N.am      3 UNK        -0.4139 
     60 C          35.1369  -48.5503  -56.1879 C.2       2 UNK         0.5016 
     61 O          35.7199  -49.6329  -56.2677 O.2       2 UNK        -0.5319 
     62 CA         35.9424  -47.2476  -56.3507 C.3       2 UNK         0.0286 
     63 CB         35.9590  -46.7950  -57.8192 C.3       2 UNK        -0.1963 
     64 N          35.4654  -46.1460  -55.5041 N.am      2 UNK        -0.4790 
     65 C          35.5392  -46.1319  -54.1653 C.2       1 UNK         0.5024 
     66 O          35.9957  -47.0702  -53.5054 O.2       1 UNK        -0.4888 
     67 H67        37.3640  -45.5319  -49.7117 H         1 UNK         0.0892 
     68 H68        36.8596  -43.8573  -49.4670 H         1 UNK         0.0892 
     69 H69        35.6549  -45.1460  -49.5031 H         1 UNK         0.0892 
     70 H70        34.5562  -45.2767  -51.4454 H         1 UNK         0.3107 
     71 H71        35.6131  -44.0265  -53.8618 H         1 UNK         0.0773 
     72 H72        33.0320  -44.2073  -52.8395 H         1 UNK         0.0680 
     73 H73        32.9770  -45.4878  -54.0024 H         1 UNK         0.0680 
     74 H74        32.0896  -41.2774  -54.9172 H         1 UNK         0.0650 
     75 H75        32.6755  -41.7778  -53.3494 H         1 UNK         0.0650 
     76 H76        31.0496  -42.6614  -51.8300 H         1 UNK         0.1397 
     77 H77        27.3074  -44.1986  -53.2600 H         1 UNK         0.1363 
     78 H78        30.3169  -42.9444  -56.0415 H         1 UNK         0.1355 
     79 H79        26.8146  -43.7889  -55.7441 H         1 UNK         0.0707 
     80 H80        28.1451  -43.6450  -56.8604 H         1 UNK         0.0707 
     81 H81        30.2356  -45.9198  -55.5845 H         1 UNK         0.1034 
     82 H82        29.7542  -47.3681  -56.4097 H         1 UNK         0.1034 
     83 H83        30.1323  -44.6209  -57.6839 H         1 UNK         0.0482 
     84 H84        31.5181  -46.0533  -60.0197 H         1 UNK         0.3460 
     85 H85        33.1236  -46.3016  -59.3818 H         1 UNK         0.3460 
     86 H86        28.7343  -45.2352  -59.2544 H         1 UNK         0.2989 
     87 H87        27.8475  -46.3343  -60.9916 H         1 UNK         0.0559 
     88 H88        29.1196  -48.2221  -62.0449 H         1 UNK         0.0848 
     89 H89        27.3876  -48.4052  -62.2773 H         1 UNK         0.0848 
     90 H90        28.2243  -49.3829  -61.0737 H         1 UNK         0.0848 
     91 H91        26.4822  -48.5609  -59.5735 H         1 UNK         0.3144 
     92 H92        24.7216  -46.4226  -57.3836 H         1 UNK         0.0727 
     93 H93        23.7177  -48.4113  -59.4884 H         1 UNK         0.0790 
     94 H94        23.1626  -46.7616  -59.2647 H         1 UNK         0.0790 
     95 H95        22.8654  -47.9582  -58.0132 H         1 UNK         0.0790 
     96 H96        25.6618  -48.0696  -56.2857 H         1 UNK         0.3215 
     97 H97        26.0266  -51.4743  -56.6622 H         1 UNK         0.0863 
     98 H98        28.4588  -51.2308  -56.0712 H         1 UNK         0.0808 
     99 H99        28.4557  -49.6070  -56.7604 H         1 UNK         0.0808 
    100 H100       28.1728  -50.9987  -57.7894 H         1 UNK         0.0808 
    101 H101       27.0277  -49.6592  -54.6682 H         1 UNK         0.3118 
    102 H102       24.0800  -49.1422  -52.9169 H         1 UNK         0.0546 
    103 H103       25.6806  -51.6654  -52.2237 H         1 UNK         0.0828 
    104 H104       23.9384  -51.5844  -52.4405 H         1 UNK         0.0828 
    105 H105       24.6874  -50.7331  -51.1021 H         1 UNK         0.0828 
    106 H106       26.8202  -49.4955  -52.0315 H         1 UNK         0.3005 
    107 H107       28.0658  -46.4620  -53.1320 H         1 UNK         0.1257 
    108 H108       27.0560  -46.8756  -50.2673 H         1 UNK         0.0775 
    109 H109       26.6739  -45.5046  -51.2668 H         1 UNK         0.0775 
    110 H110       27.6261  -43.4078  -50.8338 H         1 UNK         0.0840 
    111 H111       29.2324  -43.0334  -50.2785 H         1 UNK         0.0840 
    112 H112       29.1897  -48.1022  -51.2080 H         1 UNK         0.2987 
    113 H113       31.0008  -49.3188  -51.8667 H         1 UNK         0.0785 
    114 H114       29.2656  -51.0341  -51.2954 H         1 UNK         0.0798 
    115 H115       30.7430  -51.8095  -51.8383 H         1 UNK         0.0798 
    116 H116       29.3558  -51.6939  -52.9225 H         1 UNK         0.0798 
    117 H117       31.3621  -50.9646  -54.1852 H         1 UNK         0.3079 
    118 H118       33.4649  -50.4011  -55.3304 H         1 UNK         0.0794 
    119 H119       31.3024  -50.6025  -56.5956 H         1 UNK         0.0786 
    120 H120       32.5927  -50.0989  -57.6748 H         1 UNK         0.0786 
    121 H121       31.4201  -48.9231  -57.0949 H         1 UNK         0.0786 
    122 H122       33.4315  -47.4870  -55.8997 H         1 UNK         0.3032 
    123 H123       36.9703  -47.4704  -56.0551 H         1 UNK         0.1094 
    124 H124       36.6168  -45.9378  -57.9631 H         1 UNK         0.0794 
    125 H125       36.3205  -47.5928  -58.4697 H         1 UNK         0.0794 
    126 H126       34.9639  -46.5170  -58.1656 H         1 UNK         0.0794 
    127 H127       35.0220  -45.3668  -55.9730 H         1 UNK         0.3016 
@<TRIPOS>BOND
     1    1    2 1    
     2    1   67 1    
     3    1   68 1    
     4    1   69 1    
     5    2    3 2    
     6    2    4 am   BACKBONE|DICT|INTERRES
     7    4    5 1    
     8    4   70 1    
     9    5    6 1    
    10    5   65 1    
    11    5   71 1    
    12    6    7 1    
    13    6   72 1    
    14    6   73 1    
    15    7    8 1    
    16    8    9 1    
    17    8   74 1    
    18    8   75 1    
    19    9   10 ar   
    20    9   14 ar   
    21   10   11 ar   
    22   10   76 1    
    23   11   12 ar   
    24   11   48 1    
    25   12   13 ar   
    26   12   77 1    
    27   13   14 ar   
    28   13   15 1    
    29   14   78 1    
    30   15   16 1    
    31   15   79 1    
    32   15   80 1    
    33   16   17 1    
    34   17   18 1    
    35   17   81 1    
    36   17   82 1    
    37   18   19 1    
    38   18   22 1    
    39   18   83 1    
    40   19   20 am   BACKBONE|DICT|INTERRES
    41   19   21 2    
    42   20   84 1    
    43   20   85 1    
    44   22   23 am   BACKBONE|DICT|INTERRES
    45   22   86 1    
    46   23   24 2    
    47   23   25 1    
    48   25   26 1    
    49   25   27 1    
    50   25   87 1    
    51   26   88 1    
    52   26   89 1    
    53   26   90 1    
    54   27   28 am   BACKBONE|DICT|INTERRES
    55   27   91 1    
    56   28   29 2    
    57   28   30 1    
    58   30   31 1    
    59   30   32 1    
    60   30   92 1    
    61   31   93 1    
    62   31   94 1    
    63   31   95 1    
    64   32   33 am   BACKBONE|DICT|INTERRES
    65   32   96 1    
    66   33   34 2    
    67   33   35 1    
    68   35   36 1    
    69   35   37 1    
    70   35   97 1    
    71   36   98 1    
    72   36   99 1    
    73   36  100 1    
    74   37   38 am   BACKBONE|DICT|INTERRES
    75   37  101 1    
    76   38   39 2    
    77   38   40 1    
    78   40   41 1    
    79   40   42 1    
    80   40  102 1    
    81   41  103 1    
    82   41  104 1    
    83   41  105 1    
    84   42   43 am   BACKBONE|DICT|INTERRES
    85   42  106 1    
    86   43   44 2    
    87   43   45 1    
    88   45   46 1    
    89   45   49 1    
    90   45  107 1    
    91   46   47 1    
    92   46  108 1    
    93   46  109 1    
    94   47   48 1    
    95   48  110 1    
    96   48  111 1    
    97   49   50 am   BACKBONE|DICT|INTERRES
    98   49  112 1    
    99   50   51 2    
   100   50   52 1    
   101   52   53 1    
   102   52   54 1    
   103   52  113 1    
   104   53  114 1    
   105   53  115 1    
   106   53  116 1    
   107   54   55 am   BACKBONE|DICT|INTERRES
   108   54  117 1    
   109   55   56 2    
   110   55   57 1    
   111   57   58 1    
   112   57   59 1    
   113   57  118 1    
   114   58  119 1    
   115   58  120 1    
   116   58  121 1    
   117   59   60 am   BACKBONE|DICT|INTERRES
   118   59  122 1    
   119   60   61 2    
   120   60   62 1    
   121   62   63 1    
   122   62   64 1    
   123   62  123 1    
   124   63  124 1    
   125   63  125 1    
   126   63  126 1    
   127   64   65 am   BACKBONE|DICT|INTERRES
   128   64  127 1    
   129   65   66 2    
@<TRIPOS>SUBSTRUCTURE
     1 UNK         1 GROUP             0       ****    0 ROOT    
