@<TRIPOS>MOLECULE
3R134
127   129    1
SMALL
USER_CHARGES


@<TRIPOS>ATOM
      1 CA         28.8623  -45.6306  -50.1149 C.3       0 UNK        -0.1968 
      2 C          30.2876  -45.7667  -49.5983 C.2       0 UNK         0.4852 
      3 O          30.4863  -46.0066  -48.4060 O.2       0 UNK        -0.5359 
      4 N          31.2758  -45.6053  -50.4865 N.am      1 UNK        -0.4300 
      5 CA         32.7035  -45.7805  -50.2061 C.3       1 UNK         0.0863 
      6 C6         33.5686  -44.8825  -51.1321 C.3       11 UNK        -0.0953 
      7 S7         33.4496  -45.3249  -52.8969 S.3       11 UNK        -0.2369 
      8 C8         32.5167  -43.9209  -53.5872 C.3       11 UNK         0.0226 
      9 C9         31.9658  -44.2570  -54.9663 C.ar      11 UNK        -0.0699 
     10 C10        32.8338  -44.6492  -55.9902 C.ar      11 UNK        -0.0804 
     11 C11        32.3366  -45.0248  -57.2398 C.ar      11 UNK        -0.0871 
     12 C12        30.9615  -44.9763  -57.4743 C.ar      11 UNK        -0.1008 
     13 C13        30.0821  -44.5693  -56.4667 C.ar      11 UNK        -0.0735 
     14 C14        30.5895  -44.2059  -55.2146 C.ar      11 UNK        -0.0945 
     15 C15        28.5822  -44.6083  -56.7169 C.3       11 UNK         0.0169 
     16 S16        28.0814  -43.4838  -58.0601 S.3       11 UNK        -0.2669 
     17 C17        27.0926  -42.2169  -57.1868 C.3       11 UNK        -0.0850 
     18 CA         25.5905  -42.2338  -57.5811 C.3       10 UNK         0.0855 
     19 C          25.3660  -41.7223  -59.0374 C.2       10 UNK         0.5543 
     20 N          24.8651  -42.5345  -59.9606 N.am      10 UNK        -0.7343 
     21 O          25.6424  -40.5607  -59.3276 O.2       10 UNK        -0.5027 
     22 N          24.9541  -43.5207  -57.2472 N.am      10 UNK        -0.4495 
     23 C          23.6352  -43.7411  -57.1823 C.2       10 UNK         0.4903 
     24 O          22.7937  -42.8613  -57.3716 O.2       10 UNK        -0.4860 
     25 CA         23.1775  -45.1794  -56.8537 C.3       9 UNK         0.0227 
     26 CB         21.6707  -45.3883  -57.0999 C.3       9 UNK        -0.1964 
     27 N          23.9223  -46.2121  -57.5854 N.am      9 UNK        -0.4231 
     28 C          25.1320  -46.6746  -57.2482 C.2       9 UNK         0.5014 
     29 O          25.7989  -46.2107  -56.3218 O.2       9 UNK        -0.5270 
     30 CA         25.7079  -47.8047  -58.1173 C.3       8 UNK         0.0284 
     31 CB         26.5653  -47.2308  -59.2575 C.3       8 UNK        -0.1977 
     32 N          26.5179  -48.7198  -57.3100 N.am      8 UNK        -0.4342 
     33 C          26.0045  -49.6416  -56.4795 C.2       8 UNK         0.5039 
     34 O          24.7993  -49.8871  -56.4021 O.2       8 UNK        -0.5547 
     35 CA         26.9787  -50.4353  -55.5839 C.3       7 UNK         0.0281 
     36 CB         27.2803  -51.8098  -56.2026 C.3       7 UNK        -0.1963 
     37 N          28.2410  -49.7389  -55.3377 N.am      7 UNK        -0.4444 
     38 C          28.3703  -48.6027  -54.6384 C.2       7 UNK         0.5104 
     39 O          27.4627  -48.1128  -53.9664 O.2       7 UNK        -0.5100 
     40 CA         29.7286  -47.8763  -54.7072 C.3       6 UNK         0.0396 
     41 CB         30.3943  -47.8527  -53.3240 C.3       6 UNK        -0.1801 
     42 N          30.6713  -48.4129  -55.7011 N.am      6 UNK        -0.4747 
     43 C          30.4767  -48.4199  -57.0324 C.2       6 UNK         0.5012 
     44 O          29.4565  -47.9780  -57.5625 O.2       6 UNK        -0.5003 
     45 CA         31.5304  -49.1060  -57.9304 C.3       5 UNK         0.0782 
     46 C46        32.2760  -48.1121  -58.8608 C.3       11 UNK        -0.0868 
     47 S47        33.7057  -47.2636  -58.0984 S.3       11 UNK        -0.2515 
     48 C48        33.2886  -45.5057  -58.3211 C.3       11 UNK         0.0199 
     49 N          32.4497  -49.9817  -57.1990 N.am      5 UNK        -0.4607 
     50 C          32.1161  -51.1349  -56.6067 C.2       4 UNK         0.5031 
     51 O          30.9866  -51.6229  -56.6556 O.2       4 UNK        -0.5119 
     52 CA         33.2187  -51.8461  -55.7994 C.3       4 UNK         0.0263 
     53 CB         33.8966  -52.9263  -56.6575 C.3       4 UNK        -0.1967 
     54 N          34.2437  -50.9448  -55.2523 N.am      4 UNK        -0.4237 
     55 C          34.0044  -49.9706  -54.3630 C.2       3 UNK         0.4908 
     56 O          32.8794  -49.6892  -53.9500 O.2       3 UNK        -0.5102 
     57 CA         35.2129  -49.1379  -53.9053 C.3       3 UNK         0.0241 
     58 CB         35.3848  -47.9089  -54.8126 C.3       3 UNK        -0.1971 
     59 N          35.0711  -48.6972  -52.5143 N.am      3 UNK        -0.4139 
     60 C          35.1714  -49.5075  -51.4501 C.2       2 UNK         0.5016 
     61 O          35.4351  -50.7084  -51.5362 O.2       2 UNK        -0.5319 
     62 CA         34.9868  -48.8920  -50.0474 C.3       2 UNK         0.0286 
     63 CB         36.3309  -48.8489  -49.3001 C.3       2 UNK        -0.1963 
     64 N          34.4050  -47.5451  -50.0433 N.am      2 UNK        -0.4790 
     65 C          33.1089  -47.2753  -50.2510 C.2       1 UNK         0.5024 
     66 O          32.2691  -48.1500  -50.4756 O.2       1 UNK        -0.4888 
     67 H67        28.8334  -45.3226  -51.1601 H         1 UNK         0.0892 
     68 H68        28.3402  -46.5831  -50.0275 H         1 UNK         0.0892 
     69 H69        28.3195  -44.8887  -49.5298 H         1 UNK         0.0892 
     70 H70        31.0513  -45.4498  -51.4575 H         1 UNK         0.3107 
     71 H71        32.8872  -45.4495  -49.1815 H         1 UNK         0.0773 
     72 H72        33.2826  -43.8377  -51.0013 H         1 UNK         0.0680 
     73 H73        34.6195  -44.9252  -50.8425 H         1 UNK         0.0680 
     74 H74        33.1706  -43.0507  -53.6566 H         1 UNK         0.0650 
     75 H75        31.7070  -43.6543  -52.9065 H         1 UNK         0.0650 
     76 H76        33.8975  -44.6988  -55.8006 H         1 UNK         0.1397 
     77 H77        30.5655  -45.2814  -58.4332 H         1 UNK         0.1363 
     78 H78        29.9103  -43.9131  -54.4259 H         1 UNK         0.1355 
     79 H79        28.0239  -44.4032  -55.8029 H         1 UNK         0.0707 
     80 H80        28.3145  -45.6255  -56.9996 H         1 UNK         0.0707 
     81 H81        27.1888  -42.3411  -56.1078 H         1 UNK         0.1034 
     82 H82        27.5301  -41.2388  -57.3964 H         1 UNK         0.1034 
     83 H83        25.1019  -41.4895  -56.9492 H         1 UNK         0.0482 
     84 H84        24.7197  -42.1914  -60.8968 H         1 UNK         0.3460 
     85 H85        24.6358  -43.4863  -59.7270 H         1 UNK         0.3460 
     86 H86        25.5760  -44.2994  -57.0598 H         1 UNK         0.2989 
     87 H87        23.3528  -45.3222  -55.7852 H         1 UNK         0.0559 
     88 H88        21.4068  -45.2328  -58.1468 H         1 UNK         0.0848 
     89 H89        21.0750  -44.6929  -56.5068 H         1 UNK         0.0848 
     90 H90        21.3572  -46.3941  -56.8195 H         1 UNK         0.0848 
     91 H91        23.4590  -46.6126  -58.3890 H         1 UNK         0.3144 
     92 H92        24.8823  -48.3676  -58.5583 H         1 UNK         0.0727 
     93 H93        26.9614  -48.0236  -59.8922 H         1 UNK         0.0790 
     94 H94        27.4103  -46.6539  -58.8819 H         1 UNK         0.0790 
     95 H95        25.9785  -46.5679  -59.8946 H         1 UNK         0.0790 
     96 H96        27.5164  -48.5358  -57.2880 H         1 UNK         0.3215 
     97 H97        26.4862  -50.5900  -54.6215 H         1 UNK         0.0863 
     98 H98        27.9078  -52.4125  -55.5455 H         1 UNK         0.0808 
     99 H99        27.7924  -51.7173  -57.1614 H         1 UNK         0.0808 
    100 H100       26.3607  -52.3707  -56.3758 H         1 UNK         0.0808 
    101 H101       29.0558  -50.0859  -55.8255 H         1 UNK         0.3118 
    102 H102       29.5131  -46.8468  -54.9896 H         1 UNK         0.0546 
    103 H103       29.7628  -47.3473  -52.5934 H         1 UNK         0.0828 
    104 H104       31.3480  -47.3277  -53.3504 H         1 UNK         0.0828 
    105 H105       30.5786  -48.8594  -52.9475 H         1 UNK         0.0828 
    106 H106       31.5171  -48.8310  -55.3274 H         1 UNK         0.3005 
    107 H107       30.9441  -49.7561  -58.5846 H         1 UNK         0.1257 
    108 H108       31.5843  -47.3834  -59.2870 H         1 UNK         0.0775 
    109 H109       32.6658  -48.6633  -59.7178 H         1 UNK         0.0775 
    110 H110       34.2085  -44.9204  -58.2809 H         1 UNK         0.0840 
    111 H111       32.8698  -45.3400  -59.3150 H         1 UNK         0.0840 
    112 H112       33.3948  -49.6391  -57.1035 H         1 UNK         0.2987 
    113 H113       32.7304  -52.3371  -54.9549 H         1 UNK         0.0785 
    114 H114       33.1608  -53.6262  -57.0566 H         1 UNK         0.0798 
    115 H115       34.6097  -53.5087  -56.0737 H         1 UNK         0.0798 
    116 H116       34.4283  -52.4939  -57.5061 H         1 UNK         0.0798 
    117 H117       35.1936  -51.1034  -55.5573 H         1 UNK         0.3079 
    118 H118       36.1141  -49.7511  -53.9748 H         1 UNK         0.0794 
    119 H119       34.4727  -47.3125  -54.8630 H         1 UNK         0.0786 
    120 H120       35.6293  -48.2094  -55.8319 H         1 UNK         0.0786 
    121 H121       36.1910  -47.2625  -54.4654 H         1 UNK         0.0786 
    122 H122       34.8000  -47.7365  -52.3638 H         1 UNK         0.3032 
    123 H123       34.3155  -49.5573  -49.4989 H         1 UNK         0.1094 
    124 H124       37.0491  -48.1960  -49.7977 H         1 UNK         0.0794 
    125 H125       36.2058  -48.4951  -48.2765 H         1 UNK         0.0794 
    126 H126       36.7795  -49.8419  -49.2430 H         1 UNK         0.0794 
    127 H127       35.0416  -46.7808  -49.8665 H         1 UNK         0.3016 
@<TRIPOS>BOND
     1    1    2 1    
     2    1   67 1    
     3    1   68 1    
     4    1   69 1    
     5    2    3 2    
     6    2    4 am   BACKBONE|DICT|INTERRES
     7    4    5 1    
     8    4   70 1    
     9    5    6 1    
    10    5   65 1    
    11    5   71 1    
    12    6    7 1    
    13    6   72 1    
    14    6   73 1    
    15    7    8 1    
    16    8    9 1    
    17    8   74 1    
    18    8   75 1    
    19    9   10 ar   
    20    9   14 ar   
    21   10   11 ar   
    22   10   76 1    
    23   11   12 ar   
    24   11   48 1    
    25   12   13 ar   
    26   12   77 1    
    27   13   14 ar   
    28   13   15 1    
    29   14   78 1    
    30   15   16 1    
    31   15   79 1    
    32   15   80 1    
    33   16   17 1    
    34   17   18 1    
    35   17   81 1    
    36   17   82 1    
    37   18   19 1    
    38   18   22 1    
    39   18   83 1    
    40   19   20 am   BACKBONE|DICT|INTERRES
    41   19   21 2    
    42   20   84 1    
    43   20   85 1    
    44   22   23 am   BACKBONE|DICT|INTERRES
    45   22   86 1    
    46   23   24 2    
    47   23   25 1    
    48   25   26 1    
    49   25   27 1    
    50   25   87 1    
    51   26   88 1    
    52   26   89 1    
    53   26   90 1    
    54   27   28 am   BACKBONE|DICT|INTERRES
    55   27   91 1    
    56   28   29 2    
    57   28   30 1    
    58   30   31 1    
    59   30   32 1    
    60   30   92 1    
    61   31   93 1    
    62   31   94 1    
    63   31   95 1    
    64   32   33 am   BACKBONE|DICT|INTERRES
    65   32   96 1    
    66   33   34 2    
    67   33   35 1    
    68   35   36 1    
    69   35   37 1    
    70   35   97 1    
    71   36   98 1    
    72   36   99 1    
    73   36  100 1    
    74   37   38 am   BACKBONE|DICT|INTERRES
    75   37  101 1    
    76   38   39 2    
    77   38   40 1    
    78   40   41 1    
    79   40   42 1    
    80   40  102 1    
    81   41  103 1    
    82   41  104 1    
    83   41  105 1    
    84   42   43 am   BACKBONE|DICT|INTERRES
    85   42  106 1    
    86   43   44 2    
    87   43   45 1    
    88   45   46 1    
    89   45   49 1    
    90   45  107 1    
    91   46   47 1    
    92   46  108 1    
    93   46  109 1    
    94   47   48 1    
    95   48  110 1    
    96   48  111 1    
    97   49   50 am   BACKBONE|DICT|INTERRES
    98   49  112 1    
    99   50   51 2    
   100   50   52 1    
   101   52   53 1    
   102   52   54 1    
   103   52  113 1    
   104   53  114 1    
   105   53  115 1    
   106   53  116 1    
   107   54   55 am   BACKBONE|DICT|INTERRES
   108   54  117 1    
   109   55   56 2    
   110   55   57 1    
   111   57   58 1    
   112   57   59 1    
   113   57  118 1    
   114   58  119 1    
   115   58  120 1    
   116   58  121 1    
   117   59   60 am   BACKBONE|DICT|INTERRES
   118   59  122 1    
   119   60   61 2    
   120   60   62 1    
   121   62   63 1    
   122   62   64 1    
   123   62  123 1    
   124   63  124 1    
   125   63  125 1    
   126   63  126 1    
   127   64   65 am   BACKBONE|DICT|INTERRES
   128   64  127 1    
   129   65   66 2    
@<TRIPOS>SUBSTRUCTURE
     1 UNK         1 GROUP             0       ****    0 ROOT    
