@<TRIPOS>MOLECULE
3R134
127   129    1
SMALL
USER_CHARGES


@<TRIPOS>ATOM
      1 CA         37.4772  -47.0282  -57.1702 C.3       0 UNK        -0.1968 
      2 C          36.3532  -47.8043  -56.5005 C.2       0 UNK         0.4852 
      3 O          36.3038  -49.0309  -56.6106 O.2       0 UNK        -0.5359 
      4 N          35.4569  -47.1056  -55.7916 N.am      1 UNK        -0.4300 
      5 CA         34.2841  -47.6582  -55.0981 C.3       1 UNK         0.0863 
      6 C6         33.1667  -46.5963  -54.9296 C.3       11 UNK        -0.0953 
      7 S7         32.6333  -45.8924  -56.5252 S.3       11 UNK        -0.2369 
      8 C8         32.9311  -44.1133  -56.2744 C.3       11 UNK         0.0226 
      9 C9         31.7583  -43.4513  -55.5668 C.ar      11 UNK        -0.0699 
     10 C10        31.7414  -43.3263  -54.1739 C.ar      11 UNK        -0.0804 
     11 C11        30.6431  -42.7483  -53.5294 C.ar      11 UNK        -0.0871 
     12 C12        29.5701  -42.2722  -54.2891 C.ar      11 UNK        -0.1008 
     13 C13        29.5746  -42.3937  -55.6804 C.ar      11 UNK        -0.0735 
     14 C14        30.6769  -42.9738  -56.3137 C.ar      11 UNK        -0.0945 
     15 C15        28.3772  -41.9193  -56.4903 C.3       11 UNK         0.0169 
     16 S16        26.9756  -43.0634  -56.3015 S.3       11 UNK        -0.2669 
     17 C17        25.7636  -42.3244  -57.4467 C.3       11 UNK        -0.0850 
     18 CA         24.5091  -43.2192  -57.6331 C.3       10 UNK         0.0855 
     19 C          23.4216  -42.4940  -58.4780 C.2       10 UNK         0.5543 
     20 N          23.0097  -43.0168  -59.6267 N.am      10 UNK        -0.7343 
     21 O          22.9367  -41.4387  -58.0773 O.2       10 UNK        -0.5027 
     22 N          24.8731  -44.5559  -58.1289 N.am      10 UNK        -0.4495 
     23 C          24.1757  -45.6800  -57.9407 C.2       10 UNK         0.4903 
     24 O          23.1088  -45.7247  -57.3279 O.2       10 UNK        -0.4860 
     25 CA         24.7621  -46.9878  -58.5102 C.3       9 UNK         0.0227 
     26 CB         24.2016  -47.2791  -59.9160 C.3       9 UNK        -0.1964 
     27 N          26.2321  -47.0823  -58.4823 N.am      9 UNK        -0.4231 
     28 C          27.1392  -46.3666  -59.1678 C.2       9 UNK         0.5014 
     29 O          26.8337  -45.4878  -59.9754 O.2       9 UNK        -0.5270 
     30 CA         28.6329  -46.6231  -58.8914 C.3       8 UNK         0.0284 
     31 CB         29.3360  -45.3238  -58.4721 C.3       8 UNK        -0.1977 
     32 N          28.8615  -47.6309  -57.8541 N.am      8 UNK        -0.4342 
     33 C          29.0255  -48.9408  -58.0866 C.2       8 UNK         0.5039 
     34 O          29.0629  -49.4357  -59.2137 O.2       8 UNK        -0.5547 
     35 CA         29.1370  -49.8672  -56.8595 C.3       7 UNK         0.0281 
     36 CB         30.6146  -50.1391  -56.5324 C.3       7 UNK        -0.1963 
     37 N          28.4567  -49.3523  -55.6649 N.am      7 UNK        -0.4444 
     38 C          27.1406  -49.0928  -55.5864 C.2       7 UNK         0.5104 
     39 O          26.3524  -49.3248  -56.5027 O.2       7 UNK        -0.5100 
     40 CA         26.6024  -48.4158  -54.3100 C.3       6 UNK         0.0396 
     41 CB         25.8797  -49.4451  -53.4268 C.3       6 UNK        -0.1801 
     42 N          27.6135  -47.7251  -53.5059 N.am      6 UNK        -0.4747 
     43 C          28.4226  -46.7379  -53.9223 C.2       6 UNK         0.5012 
     44 O          28.3815  -46.2564  -55.0546 O.2       6 UNK        -0.5003 
     45 CA         29.5147  -46.2816  -52.9295 C.3       5 UNK         0.0782 
     46 C46        29.0400  -45.0590  -52.1073 C.3       11 UNK        -0.0868 
     47 S47        30.4375  -44.2933  -51.2122 S.3       11 UNK        -0.2515 
     48 C48        30.5939  -42.6591  -52.0100 C.3       11 UNK         0.0199 
     49 N          29.9705  -47.3684  -52.0444 N.am      5 UNK        -0.4607 
     50 C          30.4802  -48.5407  -52.4416 C.2       4 UNK         0.5031 
     51 O          30.6544  -48.8507  -53.6226 O.2       4 UNK        -0.5119 
     52 CA         30.7584  -49.5735  -51.3462 C.3       4 UNK         0.0263 
     53 CB         29.4433  -50.2842  -50.9599 C.3       4 UNK        -0.1967 
     54 N          31.7322  -50.5189  -51.8814 N.am      4 UNK        -0.4237 
     55 C          32.3053  -51.5486  -51.2494 C.2       3 UNK         0.4908 
     56 O          32.0749  -51.8669  -50.0822 O.2       3 UNK        -0.5102 
     57 CA         33.3375  -52.3428  -52.0655 C.3       3 UNK         0.0241 
     58 CB         32.6613  -53.1421  -53.1934 C.3       3 UNK        -0.1971 
     59 N          34.3694  -51.4673  -52.6261 N.am      3 UNK        -0.4139 
     60 C          35.3173  -50.8559  -51.9010 C.2       2 UNK         0.5016 
     61 O          35.4723  -51.0226  -50.6904 O.2       2 UNK        -0.5319 
     62 CA         36.2590  -49.8976  -52.6481 C.3       2 UNK         0.0286 
     63 CB         37.5302  -50.6336  -53.1016 C.3       2 UNK        -0.1963 
     64 N          35.6449  -49.2427  -53.8067 N.am      2 UNK        -0.4790 
     65 C          34.6852  -48.3089  -53.7531 C.2       1 UNK         0.5024 
     66 O          34.1584  -47.9435  -52.7011 O.2       1 UNK        -0.4888 
     67 H67        38.4421  -47.3631  -56.7907 H         1 UNK         0.0892 
     68 H68        37.4573  -47.1951  -58.2468 H         1 UNK         0.0892 
     69 H69        37.3955  -45.9561  -56.9922 H         1 UNK         0.0892 
     70 H70        35.5643  -46.1045  -55.7186 H         1 UNK         0.3107 
     71 H71        33.8720  -48.4609  -55.7140 H         1 UNK         0.0773 
     72 H72        33.4934  -45.8000  -54.2598 H         1 UNK         0.0680 
     73 H73        32.2885  -47.0418  -54.4652 H         1 UNK         0.0680 
     74 H74        33.0802  -43.6465  -57.2491 H         1 UNK         0.0650 
     75 H75        33.8580  -43.9574  -55.7207 H         1 UNK         0.0650 
     76 H76        32.5693  -43.6988  -53.5867 H         1 UNK         0.1397 
     77 H77        28.7117  -41.8336  -53.7985 H         1 UNK         0.1363 
     78 H78        30.6870  -43.0728  -57.3900 H         1 UNK         0.1355 
     79 H79        28.0812  -40.9220  -56.1617 H         1 UNK         0.0707 
     80 H80        28.6378  -41.8375  -57.5467 H         1 UNK         0.0707 
     81 H81        25.4837  -41.3452  -57.0529 H         1 UNK         0.1034 
     82 H82        26.2463  -42.1438  -58.4091 H         1 UNK         0.1034 
     83 H83        24.0637  -43.3526  -56.6453 H         1 UNK         0.0482 
     84 H84        23.4036  -43.8817  -59.9602 H         1 UNK         0.3460 
     85 H85        22.3018  -42.5407  -60.1634 H         1 UNK         0.3460 
     86 H86        25.7121  -44.6170  -58.6973 H         1 UNK         0.2989 
     87 H87        24.4146  -47.7868  -57.8534 H         1 UNK         0.0559 
     88 H88        24.4868  -46.5146  -60.6391 H         1 UNK         0.0848 
     89 H89        23.1115  -47.3156  -59.8991 H         1 UNK         0.0848 
     90 H90        24.5512  -48.2413  -60.2900 H         1 UNK         0.0848 
     91 H91        26.5833  -47.7823  -57.8373 H         1 UNK         0.3144 
     92 H92        29.0767  -46.9538  -59.8326 H         1 UNK         0.0727 
     93 H93        28.9759  -44.9729  -57.5048 H         1 UNK         0.0790 
     94 H94        29.1702  -44.5240  -59.1950 H         1 UNK         0.0790 
     95 H95        30.4127  -45.4682  -58.3981 H         1 UNK         0.0790 
     96 H96        28.8317  -47.3011  -56.8940 H         1 UNK         0.3215 
     97 H97        28.6634  -50.8154  -57.1225 H         1 UNK         0.0863 
     98 H98        30.7170  -50.8351  -55.6996 H         1 UNK         0.0808 
     99 H99        31.1439  -49.2214  -56.2710 H         1 UNK         0.0808 
    100 H100       31.1293  -50.5788  -57.3877 H         1 UNK         0.0808 
    101 H101       29.0516  -49.1214  -54.8750 H         1 UNK         0.3118 
    102 H102       25.8752  -47.6660  -54.6282 H         1 UNK         0.0546 
    103 H103       26.5641  -50.2077  -53.0528 H         1 UNK         0.0828 
    104 H104       25.0956  -49.9578  -53.9860 H         1 UNK         0.0828 
    105 H105       25.4028  -48.9699  -52.5694 H         1 UNK         0.0828 
    106 H106       27.7385  -48.0604  -52.5621 H         1 UNK         0.3005 
    107 H107       30.3653  -45.9746  -53.5420 H         1 UNK         0.1257 
    108 H108       28.2825  -45.3553  -51.3795 H         1 UNK         0.0775 
    109 H109       28.5580  -44.3169  -52.7448 H         1 UNK         0.0775 
    110 H110       29.7625  -42.0307  -51.6864 H         1 UNK         0.0840 
    111 H111       31.5006  -42.1727  -51.6475 H         1 UNK         0.0840 
    112 H112       29.8731  -47.1915  -51.0549 H         1 UNK         0.2987 
    113 H113       31.1915  -49.0730  -50.4781 H         1 UNK         0.0785 
    114 H114       28.6931  -49.5700  -50.6187 H         1 UNK         0.0798 
    115 H115       29.5894  -50.9953  -50.1475 H         1 UNK         0.0798 
    116 H116       29.0178  -50.8270  -51.8051 H         1 UNK         0.0798 
    117 H117       31.9800  -50.3229  -52.8435 H         1 UNK         0.3079 
    118 H118       33.8209  -53.0538  -51.3916 H         1 UNK         0.0794 
    119 H119       31.8857  -53.7973  -52.7942 H         1 UNK         0.0786 
    120 H120       33.3802  -53.7749  -53.7143 H         1 UNK         0.0786 
    121 H121       32.1904  -52.4930  -53.9327 H         1 UNK         0.0786 
    122 H122       34.3330  -51.2776  -53.6168 H         1 UNK         0.3032 
    123 H123       36.5501  -49.1181  -51.9400 H         1 UNK         0.1094 
    124 H124       38.2481  -49.9461  -53.5495 H         1 UNK         0.0794 
    125 H125       38.0268  -51.1131  -52.2566 H         1 UNK         0.0794 
    126 H126       37.3078  -51.4109  -53.8338 H         1 UNK         0.0794 
    127 H127       36.0295  -49.4562  -54.7238 H         1 UNK         0.3016 
@<TRIPOS>BOND
     1    1    2 1    
     2    1   67 1    
     3    1   68 1    
     4    1   69 1    
     5    2    3 2    
     6    2    4 am   BACKBONE|DICT|INTERRES
     7    4    5 1    
     8    4   70 1    
     9    5    6 1    
    10    5   65 1    
    11    5   71 1    
    12    6    7 1    
    13    6   72 1    
    14    6   73 1    
    15    7    8 1    
    16    8    9 1    
    17    8   74 1    
    18    8   75 1    
    19    9   10 ar   
    20    9   14 ar   
    21   10   11 ar   
    22   10   76 1    
    23   11   12 ar   
    24   11   48 1    
    25   12   13 ar   
    26   12   77 1    
    27   13   14 ar   
    28   13   15 1    
    29   14   78 1    
    30   15   16 1    
    31   15   79 1    
    32   15   80 1    
    33   16   17 1    
    34   17   18 1    
    35   17   81 1    
    36   17   82 1    
    37   18   19 1    
    38   18   22 1    
    39   18   83 1    
    40   19   20 am   BACKBONE|DICT|INTERRES
    41   19   21 2    
    42   20   84 1    
    43   20   85 1    
    44   22   23 am   BACKBONE|DICT|INTERRES
    45   22   86 1    
    46   23   24 2    
    47   23   25 1    
    48   25   26 1    
    49   25   27 1    
    50   25   87 1    
    51   26   88 1    
    52   26   89 1    
    53   26   90 1    
    54   27   28 am   BACKBONE|DICT|INTERRES
    55   27   91 1    
    56   28   29 2    
    57   28   30 1    
    58   30   31 1    
    59   30   32 1    
    60   30   92 1    
    61   31   93 1    
    62   31   94 1    
    63   31   95 1    
    64   32   33 am   BACKBONE|DICT|INTERRES
    65   32   96 1    
    66   33   34 2    
    67   33   35 1    
    68   35   36 1    
    69   35   37 1    
    70   35   97 1    
    71   36   98 1    
    72   36   99 1    
    73   36  100 1    
    74   37   38 am   BACKBONE|DICT|INTERRES
    75   37  101 1    
    76   38   39 2    
    77   38   40 1    
    78   40   41 1    
    79   40   42 1    
    80   40  102 1    
    81   41  103 1    
    82   41  104 1    
    83   41  105 1    
    84   42   43 am   BACKBONE|DICT|INTERRES
    85   42  106 1    
    86   43   44 2    
    87   43   45 1    
    88   45   46 1    
    89   45   49 1    
    90   45  107 1    
    91   46   47 1    
    92   46  108 1    
    93   46  109 1    
    94   47   48 1    
    95   48  110 1    
    96   48  111 1    
    97   49   50 am   BACKBONE|DICT|INTERRES
    98   49  112 1    
    99   50   51 2    
   100   50   52 1    
   101   52   53 1    
   102   52   54 1    
   103   52  113 1    
   104   53  114 1    
   105   53  115 1    
   106   53  116 1    
   107   54   55 am   BACKBONE|DICT|INTERRES
   108   54  117 1    
   109   55   56 2    
   110   55   57 1    
   111   57   58 1    
   112   57   59 1    
   113   57  118 1    
   114   58  119 1    
   115   58  120 1    
   116   58  121 1    
   117   59   60 am   BACKBONE|DICT|INTERRES
   118   59  122 1    
   119   60   61 2    
   120   60   62 1    
   121   62   63 1    
   122   62   64 1    
   123   62  123 1    
   124   63  124 1    
   125   63  125 1    
   126   63  126 1    
   127   64   65 am   BACKBONE|DICT|INTERRES
   128   64  127 1    
   129   65   66 2    
@<TRIPOS>SUBSTRUCTURE
     1 UNK         1 GROUP             0       ****    0 ROOT    
