@<TRIPOS>MOLECULE
3R134
127   129    1
SMALL
USER_CHARGES


@<TRIPOS>ATOM
      1 CA         38.7294  -44.3310  -52.4848 C.3       0 UNK        -0.1968 
      2 C          38.0822  -45.6246  -52.9571 C.2       0 UNK         0.4852 
      3 O          38.4929  -46.7044  -52.5298 O.2       0 UNK        -0.5359 
      4 N          37.0752  -45.5229  -53.8357 N.am      1 UNK        -0.4300 
      5 CA         36.3125  -46.6540  -54.3807 C.3       1 UNK         0.0863 
      6 C6         35.5821  -46.2700  -55.6915 C.3       11 UNK        -0.0953 
      7 S7         34.4410  -44.8537  -55.5267 S.3       11 UNK        -0.2369 
      8 C8         32.8442  -45.6887  -55.7401 C.3       11 UNK         0.0226 
      9 C9         31.6885  -44.7296  -55.5222 C.ar      11 UNK        -0.0699 
     10 C10        31.1057  -44.6287  -54.2583 C.ar      11 UNK        -0.0804 
     11 C11        29.9969  -43.8049  -54.0589 C.ar      11 UNK        -0.0871 
     12 C12        29.5196  -43.0235  -55.1123 C.ar      11 UNK        -0.1008 
     13 C13        30.0922  -43.1103  -56.3878 C.ar      11 UNK        -0.0735 
     14 C14        31.1786  -43.9717  -56.5816 C.ar      11 UNK        -0.0945 
     15 C15        29.5881  -42.2820  -57.5722 C.3       11 UNK         0.0169 
     16 S16        27.9164  -41.5609  -57.3837 S.3       11 UNK        -0.2669 
     17 C17        26.8148  -42.9734  -57.7521 C.3       11 UNK        -0.0850 
     18 CA         26.2112  -43.6929  -56.5039 C.3       10 UNK         0.0855 
     19 C          25.0936  -42.9057  -55.7491 C.2       10 UNK         0.5543 
     20 N          25.1369  -41.5811  -55.7441 N.am      10 UNK        -0.7343 
     21 O          24.2088  -43.4855  -55.1214 O.2       10 UNK        -0.5027 
     22 N          25.8238  -45.0710  -56.8346 N.am      10 UNK        -0.4495 
     23 C          24.8561  -45.4336  -57.6886 C.2       10 UNK         0.4903 
     24 O          24.1137  -44.6440  -58.2759 O.2       10 UNK        -0.4860 
     25 CA         24.7585  -46.9447  -57.9674 C.3       9 UNK         0.0227 
     26 CB         23.7244  -47.3070  -59.0541 C.3       9 UNK        -0.1964 
     27 N          26.0788  -47.5022  -58.2813 N.am      9 UNK        -0.4231 
     28 C          26.8962  -47.1593  -59.2907 C.2       9 UNK         0.5014 
     29 O          26.5921  -46.3897  -60.2029 O.2       9 UNK        -0.5270 
     30 CA         28.3174  -47.7487  -59.2620 C.3       8 UNK         0.0284 
     31 CB         29.3010  -46.7171  -58.6797 C.3       8 UNK        -0.1977 
     32 N          28.4136  -48.9854  -58.4848 N.am      8 UNK        -0.4342 
     33 C          27.8940  -50.1679  -58.8404 C.2       8 UNK         0.5039 
     34 O          27.3259  -50.3764  -59.9128 O.2       8 UNK        -0.5547 
     35 CA         28.0028  -51.2983  -57.8055 C.3       7 UNK         0.0281 
     36 CB         29.3988  -51.9431  -57.8398 C.3       7 UNK        -0.1963 
     37 N          27.7077  -50.8251  -56.4500 N.am      7 UNK        -0.4444 
     38 C          26.4774  -50.5602  -55.9885 C.2       7 UNK         0.5104 
     39 O          25.4506  -50.7130  -56.6492 O.2       7 UNK        -0.5100 
     40 CA         26.3700  -50.0273  -54.5487 C.3       6 UNK         0.0396 
     41 CB         26.2462  -51.1916  -53.5536 C.3       6 UNK        -0.1801 
     42 N          27.4982  -49.1780  -54.1602 N.am      6 UNK        -0.4747 
     43 C          27.7085  -47.9362  -54.6228 C.2       6 UNK         0.5012 
     44 O          26.9711  -47.3704  -55.4313 O.2       6 UNK        -0.5003 
     45 CA         28.9920  -47.2304  -54.1382 C.3       5 UNK         0.0782 
     46 C46        28.7800  -46.5925  -52.7373 C.3       11 UNK        -0.0868 
     47 S47        27.8857  -45.0017  -52.7744 S.3       11 UNK        -0.2515 
     48 C48        29.2647  -43.8090  -52.7287 C.3       11 UNK         0.0199 
     49 N          30.1756  -48.1060  -54.1456 N.am      5 UNK        -0.4607 
     50 C          30.5895  -48.8787  -55.1634 C.2       4 UNK         0.5031 
     51 O          30.0588  -48.8674  -56.2714 O.2       4 UNK        -0.5119 
     52 CA         31.7473  -49.8710  -54.9251 C.3       4 UNK         0.0263 
     53 CB         32.9189  -49.6032  -55.8815 C.3       4 UNK        -0.1967 
     54 N          32.2386  -49.9124  -53.5460 N.am      4 UNK        -0.4237 
     55 C          31.5394  -50.3794  -52.5006 C.2       3 UNK         0.4908 
     56 O          30.4332  -50.9108  -52.6092 O.2       3 UNK        -0.5102 
     57 CA         32.1349  -50.1827  -51.0938 C.3       3 UNK         0.0241 
     58 CB         32.6883  -51.5130  -50.5576 C.3       3 UNK        -0.1971 
     59 N          33.1789  -49.1557  -50.9909 N.am      3 UNK        -0.4139 
     60 C          33.0651  -47.8588  -51.3161 C.2       2 UNK         0.5016 
     61 O          32.0506  -47.3615  -51.8055 O.2       2 UNK        -0.5319 
     62 CA         34.2986  -46.9665  -51.0766 C.3       2 UNK         0.0286 
     63 CB         35.3369  -47.5862  -50.1138 C.3       2 UNK        -0.1963 
     64 N          34.9732  -46.5481  -52.3125 N.am      2 UNK        -0.4790 
     65 C          35.3789  -47.3163  -53.3385 C.2       1 UNK         0.5024 
     66 O          35.0845  -48.5063  -53.4677 O.2       1 UNK        -0.4888 
     67 H67        38.6322  -44.2362  -51.4036 H         1 UNK         0.0892 
     68 H68        38.2732  -43.4544  -52.9444 H         1 UNK         0.0892 
     69 H69        39.7904  -44.3301  -52.7332 H         1 UNK         0.0892 
     70 H70        36.7831  -44.6112  -54.1601 H         1 UNK         0.3107 
     71 H71        37.0406  -47.4236  -54.6473 H         1 UNK         0.0773 
     72 H72        35.0607  -47.1314  -56.1094 H         1 UNK         0.0680 
     73 H73        36.3236  -45.9980  -56.4443 H         1 UNK         0.0680 
     74 H74        32.7867  -46.1292  -56.7368 H         1 UNK         0.0650 
     75 H75        32.7746  -46.5113  -55.0274 H         1 UNK         0.0650 
     76 H76        31.4847  -45.2315  -53.4438 H         1 UNK         0.1397 
     77 H77        28.6777  -42.3717  -54.9301 H         1 UNK         0.1363 
     78 H78        31.6329  -44.0521  -57.5599 H         1 UNK         0.1355 
     79 H79        29.6160  -42.8804  -58.4842 H         1 UNK         0.0707 
     80 H80        30.2897  -41.4613  -57.7259 H         1 UNK         0.0707 
     81 H81        27.3801  -43.6895  -58.3510 H         1 UNK         0.1034 
     82 H82        26.0146  -42.6246  -58.4074 H         1 UNK         0.1034 
     83 H83        27.0051  -43.8206  -55.7709 H         1 UNK         0.0482 
     84 H84        24.4324  -41.0605  -55.2458 H         1 UNK         0.3460 
     85 H85        25.8777  -41.0997  -56.2336 H         1 UNK         0.3460 
     86 H86        26.3328  -45.8065  -56.3516 H         1 UNK         0.2989 
     87 H87        24.4395  -47.4142  -57.0355 H         1 UNK         0.0559 
     88 H88        23.9539  -46.8348  -60.0098 H         1 UNK         0.0848 
     89 H89        22.7253  -46.9805  -58.7636 H         1 UNK         0.0848 
     90 H90        23.6804  -48.3843  -59.2142 H         1 UNK         0.0848 
     91 H91        26.4698  -48.0968  -57.5626 H         1 UNK         0.3144 
     92 H92        28.6096  -47.9676  -60.2910 H         1 UNK         0.0727 
     93 H93        29.2851  -45.7907  -59.2555 H         1 UNK         0.0790 
     94 H94        30.3250  -47.0910  -58.6945 H         1 UNK         0.0790 
     95 H95        29.0552  -46.4624  -57.6474 H         1 UNK         0.0790 
     96 H96        28.9343  -48.9292  -57.6079 H         1 UNK         0.3215 
     97 H97        27.2705  -52.0646  -58.0700 H         1 UNK         0.0863 
     98 H98        29.4697  -52.7738  -57.1375 H         1 UNK         0.0808 
     99 H99        30.1865  -51.2295  -57.5966 H         1 UNK         0.0808 
    100 H100       29.6172  -52.3398  -58.8322 H         1 UNK         0.0808 
    101 H101       28.4969  -50.6161  -55.8561 H         1 UNK         0.3118 
    102 H102       25.4580  -49.4295  -54.4852 H         1 UNK         0.0546 
    103 H103       25.4031  -51.8353  -53.8089 H         1 UNK         0.0828 
    104 H104       26.0793  -50.8302  -52.5388 H         1 UNK         0.0828 
    105 H105       27.1416  -51.8147  -53.5450 H         1 UNK         0.0828 
    106 H106       28.1707  -49.5730  -53.5161 H         1 UNK         0.3005 
    107 H107       29.1948  -46.4430  -54.8656 H         1 UNK         0.1257 
    108 H108       29.7377  -46.4125  -52.2517 H         1 UNK         0.0775 
    109 H109       28.2531  -47.2743  -52.0667 H         1 UNK         0.0775 
    110 H110       28.8688  -42.8143  -52.5184 H         1 UNK         0.0840 
    111 H111       29.9440  -44.0473  -51.9085 H         1 UNK         0.0840 
    112 H112       30.7120  -48.1271  -53.2855 H         1 UNK         0.2987 
    113 H113       31.3521  -50.8612  -55.1614 H         1 UNK         0.0785 
    114 H114       32.5876  -49.5906  -56.9210 H         1 UNK         0.0798 
    115 H115       33.6836  -50.3754  -55.7960 H         1 UNK         0.0798 
    116 H116       33.3909  -48.6455  -55.6771 H         1 UNK         0.0798 
    117 H117       33.1406  -49.4821  -53.3716 H         1 UNK         0.3079 
    118 H118       31.3134  -49.8686  -50.4468 H         1 UNK         0.0794 
    119 H119       33.5384  -51.8619  -51.1455 H         1 UNK         0.0786 
    120 H120       31.9278  -52.2950  -50.5887 H         1 UNK         0.0786 
    121 H121       33.0106  -51.4212  -49.5201 H         1 UNK         0.0786 
    122 H122       34.0701  -49.4643  -50.6304 H         1 UNK         0.3032 
    123 H123       33.9165  -46.0585  -50.6067 H         1 UNK         0.1094 
    124 H124       36.1163  -46.8643  -49.8685 H         1 UNK         0.0794 
    125 H125       34.8775  -47.8866  -49.1707 H         1 UNK         0.0794 
    126 H126       35.8303  -48.4592  -50.5430 H         1 UNK         0.0794 
    127 H127       35.2328  -45.5726  -52.3500 H         1 UNK         0.3016 
@<TRIPOS>BOND
     1    1    2 1    
     2    1   67 1    
     3    1   68 1    
     4    1   69 1    
     5    2    3 2    
     6    2    4 am   BACKBONE|DICT|INTERRES
     7    4    5 1    
     8    4   70 1    
     9    5    6 1    
    10    5   65 1    
    11    5   71 1    
    12    6    7 1    
    13    6   72 1    
    14    6   73 1    
    15    7    8 1    
    16    8    9 1    
    17    8   74 1    
    18    8   75 1    
    19    9   10 ar   
    20    9   14 ar   
    21   10   11 ar   
    22   10   76 1    
    23   11   12 ar   
    24   11   48 1    
    25   12   13 ar   
    26   12   77 1    
    27   13   14 ar   
    28   13   15 1    
    29   14   78 1    
    30   15   16 1    
    31   15   79 1    
    32   15   80 1    
    33   16   17 1    
    34   17   18 1    
    35   17   81 1    
    36   17   82 1    
    37   18   19 1    
    38   18   22 1    
    39   18   83 1    
    40   19   20 am   BACKBONE|DICT|INTERRES
    41   19   21 2    
    42   20   84 1    
    43   20   85 1    
    44   22   23 am   BACKBONE|DICT|INTERRES
    45   22   86 1    
    46   23   24 2    
    47   23   25 1    
    48   25   26 1    
    49   25   27 1    
    50   25   87 1    
    51   26   88 1    
    52   26   89 1    
    53   26   90 1    
    54   27   28 am   BACKBONE|DICT|INTERRES
    55   27   91 1    
    56   28   29 2    
    57   28   30 1    
    58   30   31 1    
    59   30   32 1    
    60   30   92 1    
    61   31   93 1    
    62   31   94 1    
    63   31   95 1    
    64   32   33 am   BACKBONE|DICT|INTERRES
    65   32   96 1    
    66   33   34 2    
    67   33   35 1    
    68   35   36 1    
    69   35   37 1    
    70   35   97 1    
    71   36   98 1    
    72   36   99 1    
    73   36  100 1    
    74   37   38 am   BACKBONE|DICT|INTERRES
    75   37  101 1    
    76   38   39 2    
    77   38   40 1    
    78   40   41 1    
    79   40   42 1    
    80   40  102 1    
    81   41  103 1    
    82   41  104 1    
    83   41  105 1    
    84   42   43 am   BACKBONE|DICT|INTERRES
    85   42  106 1    
    86   43   44 2    
    87   43   45 1    
    88   45   46 1    
    89   45   49 1    
    90   45  107 1    
    91   46   47 1    
    92   46  108 1    
    93   46  109 1    
    94   47   48 1    
    95   48  110 1    
    96   48  111 1    
    97   49   50 am   BACKBONE|DICT|INTERRES
    98   49  112 1    
    99   50   51 2    
   100   50   52 1    
   101   52   53 1    
   102   52   54 1    
   103   52  113 1    
   104   53  114 1    
   105   53  115 1    
   106   53  116 1    
   107   54   55 am   BACKBONE|DICT|INTERRES
   108   54  117 1    
   109   55   56 2    
   110   55   57 1    
   111   57   58 1    
   112   57   59 1    
   113   57  118 1    
   114   58  119 1    
   115   58  120 1    
   116   58  121 1    
   117   59   60 am   BACKBONE|DICT|INTERRES
   118   59  122 1    
   119   60   61 2    
   120   60   62 1    
   121   62   63 1    
   122   62   64 1    
   123   62  123 1    
   124   63  124 1    
   125   63  125 1    
   126   63  126 1    
   127   64   65 am   BACKBONE|DICT|INTERRES
   128   64  127 1    
   129   65   66 2    
@<TRIPOS>SUBSTRUCTURE
     1 UNK         1 GROUP             0       ****    0 ROOT    
