@<TRIPOS>MOLECULE
3R134
127   129    1
SMALL
USER_CHARGES


@<TRIPOS>ATOM
      1 CA         38.2528  -44.4586  -48.9523 C.3       0 UNK        -0.1968 
      2 C          36.8165  -44.9011  -49.1914 C.2       0 UNK         0.4852 
      3 O          36.0172  -44.8961  -48.2544 O.2       0 UNK        -0.5359 
      4 N          36.4926  -45.2778  -50.4374 N.am      1 UNK        -0.4300 
      5 CA         35.1845  -45.7646  -50.8933 C.3       1 UNK         0.0863 
      6 C6         34.0687  -44.6836  -50.8138 C.3       11 UNK        -0.0953 
      7 S7         32.7761  -44.9414  -52.0785 S.3       11 UNK        -0.2369 
      8 C8         33.1204  -43.5499  -53.1952 C.3       11 UNK         0.0226 
      9 C9         32.2576  -43.5773  -54.4496 C.ar      11 UNK        -0.0699 
     10 C10        32.8314  -43.8739  -55.6901 C.ar      11 UNK        -0.0804 
     11 C11        32.0714  -43.7923  -56.8605 C.ar      11 UNK        -0.0871 
     12 C12        30.7273  -43.4217  -56.7816 C.ar      11 UNK        -0.1008 
     13 C13        30.1272  -43.1642  -55.5461 C.ar      11 UNK        -0.0735 
     14 C14        30.9010  -43.2412  -54.3823 C.ar      11 UNK        -0.0945 
     15 C15        28.6601  -42.7552  -55.4717 C.3       11 UNK         0.0169 
     16 S16        27.5337  -44.1089  -55.9452 S.3       11 UNK        -0.2669 
     17 C17        27.4830  -43.9619  -57.7671 C.3       11 UNK        -0.0850 
     18 CA         26.0545  -44.1398  -58.3372 C.3       10 UNK         0.0855 
     19 C          26.0343  -43.8781  -59.8672 C.2       10 UNK         0.5543 
     20 N          25.8131  -42.6373  -60.2787 N.am      10 UNK        -0.7343 
     21 O          26.2608  -44.7735  -60.6783 O.2       10 UNK        -0.5027 
     22 N          25.5041  -45.4560  -57.9929 N.am      10 UNK        -0.4495 
     23 C          24.2050  -45.7785  -58.0480 C.2       10 UNK         0.4903 
     24 O          23.3205  -44.9935  -58.3924 O.2       10 UNK        -0.4860 
     25 CA         23.8067  -47.2076  -57.6339 C.3       9 UNK         0.0227 
     26 CB         23.4349  -48.0425  -58.8685 C.3       9 UNK        -0.1964 
     27 N          24.8512  -47.8863  -56.8571 N.am      9 UNK        -0.4231 
     28 C          25.0996  -47.6262  -55.5635 C.2       9 UNK         0.5014 
     29 O          24.3977  -46.8736  -54.8850 O.2       9 UNK        -0.5270 
     30 CA         26.3496  -48.2553  -54.9160 C.3       8 UNK         0.0284 
     31 CB         26.1223  -48.6365  -53.4371 C.3       8 UNK        -0.1977 
     32 N          26.9455  -49.3675  -55.6619 N.am      8 UNK        -0.4342 
     33 C          26.4154  -50.5730  -55.9097 C.2       8 UNK         0.5039 
     34 O          25.3149  -50.9445  -55.4979 O.2       8 UNK        -0.5547 
     35 CA         27.2626  -51.4932  -56.8127 C.3       7 UNK         0.0281 
     36 CB         26.5226  -52.7839  -57.2250 C.3       7 UNK        -0.1963 
     37 N          27.7754  -50.7855  -57.9957 N.am      7 UNK        -0.4444 
     38 C          27.0503  -50.1383  -58.9229 C.2       7 UNK         0.5104 
     39 O          25.8208  -50.1106  -58.9313 O.2       7 UNK        -0.5100 
     40 CA         27.8424  -49.3559  -59.9903 C.3       6 UNK         0.0396 
     41 CB         26.9715  -48.3491  -60.7718 C.3       6 UNK        -0.1801 
     42 N          29.0306  -48.6918  -59.4394 N.am      6 UNK        -0.4747 
     43 C          29.0599  -47.7728  -58.4609 C.2       6 UNK         0.5012 
     44 O          28.0547  -47.3118  -57.9114 O.2       6 UNK        -0.5003 
     45 CA         30.4694  -47.3183  -58.0286 C.3       5 UNK         0.0782 
     46 C46        31.0106  -46.2096  -58.9623 C.3       11 UNK        -0.0868 
     47 S47        32.7642  -45.8296  -58.6210 S.3       11 UNK        -0.2515 
     48 C48        32.7134  -44.0561  -58.2149 C.3       11 UNK         0.0199 
     49 N          30.5469  -46.9426  -56.6129 N.am      5 UNK        -0.4607 
     50 C          30.3126  -47.7739  -55.5916 C.2       4 UNK         0.5031 
     51 O          29.8573  -48.9148  -55.7214 O.2       4 UNK        -0.5119 
     52 CA         30.6657  -47.2503  -54.1922 C.3       4 UNK         0.0263 
     53 CB         29.4709  -46.5619  -53.5188 C.3       4 UNK        -0.1967 
     54 N          31.1213  -48.3519  -53.3450 N.am      4 UNK        -0.4237 
     55 C          32.3788  -48.8032  -53.3186 C.2       3 UNK         0.4908 
     56 O          33.3144  -48.2898  -53.9389 O.2       3 UNK        -0.5102 
     57 CA         32.6500  -50.0356  -52.4507 C.3       3 UNK         0.0241 
     58 CB         32.7401  -51.3149  -53.3000 C.3       3 UNK        -0.1971 
     59 N          33.9130  -49.7879  -51.7721 N.am      3 UNK        -0.4139 
     60 C          34.2310  -50.1688  -50.5313 C.2       2 UNK         0.5016 
     61 O          33.5792  -50.9752  -49.8664 O.2       2 UNK        -0.5319 
     62 CA         35.4664  -49.4880  -49.9099 C.3       2 UNK         0.0286 
     63 CB         36.7326  -50.3207  -50.1672 C.3       2 UNK        -0.1963 
     64 N          35.6756  -48.1154  -50.3959 N.am      2 UNK        -0.4790 
     65 C          34.8124  -47.1021  -50.2132 C.2       1 UNK         0.5024 
     66 O          33.7826  -47.2041  -49.5434 O.2       1 UNK        -0.4888 
     67 H67        38.7225  -45.0978  -48.2051 H         1 UNK         0.0892 
     68 H68        38.8522  -44.5038  -49.8614 H         1 UNK         0.0892 
     69 H69        38.2729  -43.4331  -48.5845 H         1 UNK         0.0892 
     70 H70        37.2098  -45.2536  -51.1494 H         1 UNK         0.3107 
     71 H71        35.3337  -46.0006  -51.9486 H         1 UNK         0.0773 
     72 H72        33.6072  -44.6469  -49.8254 H         1 UNK         0.0680 
     73 H73        34.5012  -43.6930  -50.9618 H         1 UNK         0.0680 
     74 H74        32.9496  -42.6135  -52.6621 H         1 UNK         0.0650 
     75 H75        34.1784  -43.5637  -53.4621 H         1 UNK         0.0650 
     76 H76        33.8788  -44.1369  -55.7508 H         1 UNK         0.1397 
     77 H77        30.1499  -43.3251  -57.6883 H         1 UNK         0.1363 
     78 H78        30.4569  -43.0160  -53.4223 H         1 UNK         0.1355 
     79 H79        28.4861  -41.8789  -56.0973 H         1 UNK         0.0707 
     80 H80        28.4080  -42.4502  -54.4550 H         1 UNK         0.0707 
     81 H81        28.1605  -44.7004  -58.1958 H         1 UNK         0.1034 
     82 H82        27.8719  -42.9848  -58.0578 H         1 UNK         0.1034 
     83 H83        25.4161  -43.3900  -57.8647 H         1 UNK         0.0482 
     84 H84        25.6319  -41.8932  -59.6229 H         1 UNK         0.3460 
     85 H85        25.8115  -42.4433  -61.2679 H         1 UNK         0.3460 
     86 H86        26.1836  -46.1641  -57.7421 H         1 UNK         0.2989 
     87 H87        22.9132  -47.1301  -57.0109 H         1 UNK         0.0559 
     88 H88        23.1748  -49.0656  -58.5963 H         1 UNK         0.0848 
     89 H89        24.2493  -48.0827  -59.5909 H         1 UNK         0.0848 
     90 H90        22.5728  -47.6138  -59.3810 H         1 UNK         0.0848 
     91 H91        25.4480  -48.5361  -57.3552 H         1 UNK         0.3144 
     92 H92        27.0987  -47.4643  -54.9445 H         1 UNK         0.0727 
     93 H93        27.0146  -49.0818  -52.9976 H         1 UNK         0.0790 
     94 H94        25.3038  -49.3481  -53.3255 H         1 UNK         0.0790 
     95 H95        25.8717  -47.7586  -52.8404 H         1 UNK         0.0790 
     96 H96        27.8752  -49.1794  -56.0285 H         1 UNK         0.3215 
     97 H97        28.1324  -51.7843  -56.2211 H         1 UNK         0.0863 
     98 H98        27.1538  -53.4240  -57.8411 H         1 UNK         0.0808 
     99 H99        25.6130  -52.5684  -57.7868 H         1 UNK         0.0808 
    100 H100       26.2319  -53.3634  -56.3480 H         1 UNK         0.0808 
    101 H101       28.7817  -50.7225  -58.0657 H         1 UNK         0.3118 
    102 H102       28.2040  -50.0992  -60.7022 H         1 UNK         0.0546 
    103 H103       26.5522  -47.5819  -60.1204 H         1 UNK         0.0828 
    104 H104       26.1375  -48.8497  -61.2650 H         1 UNK         0.0828 
    105 H105       27.5476  -47.8444  -61.5469 H         1 UNK         0.0828 
    106 H106       29.9103  -49.0006  -59.8313 H         1 UNK         0.3005 
    107 H107       31.1241  -48.1864  -58.1362 H         1 UNK         0.1257 
    108 H108       30.9492  -46.5234  -60.0062 H         1 UNK         0.0775 
    109 H109       30.4029  -45.3084  -58.8885 H         1 UNK         0.0775 
    110 H110       33.7335  -43.6689  -58.2148 H         1 UNK         0.0840 
    111 H111       32.1891  -43.5152  -59.0046 H         1 UNK         0.0840 
    112 H112       30.8904  -46.0109  -56.4238 H         1 UNK         0.2987 
    113 H113       31.4668  -46.5149  -54.2953 H         1 UNK         0.0785 
    114 H114       29.7765  -46.0638  -52.5986 H         1 UNK         0.0798 
    115 H115       28.6831  -47.2691  -53.2659 H         1 UNK         0.0798 
    116 H116       29.0412  -45.7996  -54.1668 H         1 UNK         0.0798 
    117 H117       30.4051  -48.8624  -52.8494 H         1 UNK         0.3079 
    118 H118       31.8508  -50.1395  -51.7131 H         1 UNK         0.0794 
    119 H119       31.8030  -51.4992  -53.8271 H         1 UNK         0.0786 
    120 H120       32.9427  -52.1881  -52.6795 H         1 UNK         0.0786 
    121 H121       33.5297  -51.2459  -54.0494 H         1 UNK         0.0786 
    122 H122       34.4983  -49.1043  -52.2356 H         1 UNK         0.3032 
    123 H123       35.2997  -49.4383  -48.8313 H         1 UNK         0.1094 
    124 H124       36.6109  -51.3390  -49.7949 H         1 UNK         0.0794 
    125 H125       36.9639  -50.3887  -51.2310 H         1 UNK         0.0794 
    126 H126       37.5985  -49.8944  -49.6603 H         1 UNK         0.0794 
    127 H127       36.5166  -47.9456  -50.9295 H         1 UNK         0.3016 
@<TRIPOS>BOND
     1    1    2 1    
     2    1   67 1    
     3    1   68 1    
     4    1   69 1    
     5    2    3 2    
     6    2    4 am   BACKBONE|DICT|INTERRES
     7    4    5 1    
     8    4   70 1    
     9    5    6 1    
    10    5   65 1    
    11    5   71 1    
    12    6    7 1    
    13    6   72 1    
    14    6   73 1    
    15    7    8 1    
    16    8    9 1    
    17    8   74 1    
    18    8   75 1    
    19    9   10 ar   
    20    9   14 ar   
    21   10   11 ar   
    22   10   76 1    
    23   11   12 ar   
    24   11   48 1    
    25   12   13 ar   
    26   12   77 1    
    27   13   14 ar   
    28   13   15 1    
    29   14   78 1    
    30   15   16 1    
    31   15   79 1    
    32   15   80 1    
    33   16   17 1    
    34   17   18 1    
    35   17   81 1    
    36   17   82 1    
    37   18   19 1    
    38   18   22 1    
    39   18   83 1    
    40   19   20 am   BACKBONE|DICT|INTERRES
    41   19   21 2    
    42   20   84 1    
    43   20   85 1    
    44   22   23 am   BACKBONE|DICT|INTERRES
    45   22   86 1    
    46   23   24 2    
    47   23   25 1    
    48   25   26 1    
    49   25   27 1    
    50   25   87 1    
    51   26   88 1    
    52   26   89 1    
    53   26   90 1    
    54   27   28 am   BACKBONE|DICT|INTERRES
    55   27   91 1    
    56   28   29 2    
    57   28   30 1    
    58   30   31 1    
    59   30   32 1    
    60   30   92 1    
    61   31   93 1    
    62   31   94 1    
    63   31   95 1    
    64   32   33 am   BACKBONE|DICT|INTERRES
    65   32   96 1    
    66   33   34 2    
    67   33   35 1    
    68   35   36 1    
    69   35   37 1    
    70   35   97 1    
    71   36   98 1    
    72   36   99 1    
    73   36  100 1    
    74   37   38 am   BACKBONE|DICT|INTERRES
    75   37  101 1    
    76   38   39 2    
    77   38   40 1    
    78   40   41 1    
    79   40   42 1    
    80   40  102 1    
    81   41  103 1    
    82   41  104 1    
    83   41  105 1    
    84   42   43 am   BACKBONE|DICT|INTERRES
    85   42  106 1    
    86   43   44 2    
    87   43   45 1    
    88   45   46 1    
    89   45   49 1    
    90   45  107 1    
    91   46   47 1    
    92   46  108 1    
    93   46  109 1    
    94   47   48 1    
    95   48  110 1    
    96   48  111 1    
    97   49   50 am   BACKBONE|DICT|INTERRES
    98   49  112 1    
    99   50   51 2    
   100   50   52 1    
   101   52   53 1    
   102   52   54 1    
   103   52  113 1    
   104   53  114 1    
   105   53  115 1    
   106   53  116 1    
   107   54   55 am   BACKBONE|DICT|INTERRES
   108   54  117 1    
   109   55   56 2    
   110   55   57 1    
   111   57   58 1    
   112   57   59 1    
   113   57  118 1    
   114   58  119 1    
   115   58  120 1    
   116   58  121 1    
   117   59   60 am   BACKBONE|DICT|INTERRES
   118   59  122 1    
   119   60   61 2    
   120   60   62 1    
   121   62   63 1    
   122   62   64 1    
   123   62  123 1    
   124   63  124 1    
   125   63  125 1    
   126   63  126 1    
   127   64   65 am   BACKBONE|DICT|INTERRES
   128   64  127 1    
   129   65   66 2    
@<TRIPOS>SUBSTRUCTURE
     1 UNK         1 GROUP             0       ****    0 ROOT    
