@<TRIPOS>MOLECULE
3R134
127   129    1
SMALL
USER_CHARGES


@<TRIPOS>ATOM
      1 CA         37.2316  -45.7081  -47.5145 C.3       0 UNK        -0.1968 
      2 C          36.7529  -45.4990  -48.9439 C.2       0 UNK         0.4852 
      3 O          37.5590  -45.5659  -49.8737 O.2       0 UNK        -0.5359 
      4 N          35.4512  -45.2390  -49.1246 N.am      1 UNK        -0.4300 
      5 CA         34.8014  -45.0801  -50.4290 C.3       1 UNK         0.0863 
      6 C6         33.4333  -44.3656  -50.2812 C.3       11 UNK        -0.0953 
      7 S7         32.9680  -43.4377  -51.7788 S.3       11 UNK        -0.2369 
      8 C8         31.6153  -44.4733  -52.4059 C.3       11 UNK         0.0226 
      9 C9         31.1976  -44.0444  -53.8027 C.ar      11 UNK        -0.0699 
     10 C10        31.9015  -44.5185  -54.9103 C.ar      11 UNK        -0.0804 
     11 C11        31.5530  -44.1233  -56.2053 C.ar      11 UNK        -0.0871 
     12 C12        30.4766  -43.2462  -56.3848 C.ar      11 UNK        -0.1008 
     13 C13        29.7725  -42.7493  -55.2809 C.ar      11 UNK        -0.0735 
     14 C14        30.1323  -43.1606  -53.9928 C.ar      11 UNK        -0.0945 
     15 C15        28.6864  -41.6964  -55.4621 C.3       11 UNK         0.0169 
     16 S16        27.0197  -42.3202  -55.0778 S.3       11 UNK        -0.2669 
     17 C17        26.5226  -43.1010  -56.6524 C.3       11 UNK        -0.0850 
     18 CA         25.9476  -44.5351  -56.4581 C.3       10 UNK         0.0855 
     19 C          24.4496  -44.5813  -56.0173 C.2       10 UNK         0.5543 
     20 N          24.0107  -43.6525  -55.1788 N.am      10 UNK        -0.7343 
     21 O          23.6844  -45.4673  -56.3944 O.2       10 UNK        -0.5027 
     22 N          26.2591  -45.3985  -57.6055 N.am      10 UNK        -0.4495 
     23 C          25.7698  -45.2769  -58.8458 C.2       10 UNK         0.4903 
     24 O          24.9876  -44.3911  -59.1931 O.2       10 UNK        -0.4860 
     25 CA         26.2441  -46.2952  -59.8929 C.3       9 UNK         0.0227 
     26 CB         27.5026  -45.7717  -60.6067 C.3       9 UNK        -0.1964 
     27 N          26.5363  -47.6128  -59.3159 N.am      9 UNK        -0.4231 
     28 C          25.9811  -48.7617  -59.7230 C.2       9 UNK         0.5014 
     29 O          25.0923  -48.8308  -60.5740 O.2       9 UNK        -0.5270 
     30 CA         26.5291  -50.0698  -59.1264 C.3       8 UNK         0.0284 
     31 CB         27.7600  -50.5424  -59.9171 C.3       8 UNK        -0.1977 
     32 N          26.8536  -50.0090  -57.6980 N.am      8 UNK        -0.4342 
     33 C          25.9303  -50.0008  -56.7252 C.2       8 UNK         0.5039 
     34 O          24.7186  -49.9224  -56.9316 O.2       8 UNK        -0.5547 
     35 CA         26.4352  -50.1475  -55.2805 C.3       7 UNK         0.0281 
     36 CB         26.8821  -51.5918  -54.9994 C.3       7 UNK        -0.1963 
     37 N          27.5321  -49.2297  -54.9857 N.am      7 UNK        -0.4444 
     38 C          27.3714  -47.9259  -54.7227 C.2       7 UNK         0.5104 
     39 O          26.2755  -47.3800  -54.6056 O.2       7 UNK        -0.5100 
     40 CA         28.6544  -47.0843  -54.5863 C.3       6 UNK         0.0396 
     41 CB         29.1807  -47.1771  -53.1482 C.3       6 UNK        -0.1801 
     42 N          29.6989  -47.4791  -55.5409 N.am      6 UNK        -0.4747 
     43 C          29.5385  -47.4444  -56.8744 C.2       6 UNK         0.5012 
     44 O          28.5253  -47.0136  -57.4224 O.2       6 UNK        -0.5003 
     45 CA         30.6192  -48.0812  -57.7636 C.3       5 UNK         0.0782 
     46 C46        31.5363  -47.0464  -58.4544 C.3       11 UNK        -0.0868 
     47 S47        32.8291  -46.3305  -57.3924 S.3       11 UNK        -0.2515 
     48 C48        32.4060  -44.5540  -57.3946 C.3       11 UNK         0.0199 
     49 N          31.3324  -49.1672  -57.0863 N.am      5 UNK        -0.4607 
     50 C          30.7797  -50.3671  -56.8604 C.2       4 UNK         0.5031 
     51 O          29.6366  -50.6655  -57.2100 O.2       4 UNK        -0.5119 
     52 CA         31.6207  -51.3862  -56.0779 C.3       4 UNK         0.0263 
     53 CB         32.8580  -51.8217  -56.8806 C.3       4 UNK        -0.1967 
     54 N          32.0299  -50.8867  -54.7641 N.am      4 UNK        -0.4237 
     55 C          31.1888  -50.5266  -53.7833 C.2       3 UNK         0.4908 
     56 O          29.9627  -50.5873  -53.8742 O.2       3 UNK        -0.5102 
     57 CA         31.8138  -50.0031  -52.4775 C.3       3 UNK         0.0241 
     58 CB         31.9621  -51.1474  -51.4621 C.3       3 UNK        -0.1971 
     59 N          33.1061  -49.3281  -52.6381 N.am      3 UNK        -0.4139 
     60 C          33.3233  -48.2352  -53.3823 C.2       2 UNK         0.5016 
     61 O          32.4641  -47.7036  -54.0874 O.2       2 UNK        -0.5319 
     62 CA         34.7412  -47.6401  -53.3220 C.3       2 UNK         0.0286 
     63 CB         35.2690  -47.2891  -54.7227 C.3       2 UNK        -0.1963 
     64 N          34.7968  -46.4462  -52.4746 N.am      2 UNK        -0.4790 
     65 C          34.6747  -46.4465  -51.1403 C.2       1 UNK         0.5024 
     66 O          34.4747  -47.4661  -50.4745 O.2       1 UNK        -0.4888 
     67 H67        36.4208  -45.6064  -46.7932 H         1 UNK         0.0892 
     68 H68        37.6598  -46.7041  -47.4046 H         1 UNK         0.0892 
     69 H69        38.0002  -44.9770  -47.2652 H         1 UNK         0.0892 
     70 H70        34.8341  -45.2322  -48.3251 H         1 UNK         0.3107 
     71 H71        35.4589  -44.4462  -51.0290 H         1 UNK         0.0773 
     72 H72        32.6419  -45.0599  -49.9906 H         1 UNK         0.0680 
     73 H73        33.4833  -43.6276  -49.4787 H         1 UNK         0.0680 
     74 H74        30.7681  -44.4265  -51.7200 H         1 UNK         0.0650 
     75 H75        31.9491  -45.5109  -52.4238 H         1 UNK         0.0650 
     76 H76        32.7401  -45.1825  -54.7581 H         1 UNK         0.1397 
     77 H77        30.2175  -42.9106  -57.3796 H         1 UNK         0.1363 
     78 H78        29.5982  -42.7702  -53.1373 H         1 UNK         0.1355 
     79 H79        28.7024  -41.2818  -56.4713 H         1 UNK         0.0707 
     80 H80        28.9002  -40.8601  -54.7948 H         1 UNK         0.0707 
     81 H81        25.8101  -42.4583  -57.1730 H         1 UNK         0.1034 
     82 H82        27.4017  -43.1432  -57.2974 H         1 UNK         0.1034 
     83 H83        26.4923  -44.9945  -55.6357 H         1 UNK         0.0482 
     84 H84        24.6396  -42.9364  -54.8450 H         1 UNK         0.3460 
     85 H85        23.0514  -43.6727  -54.8705 H         1 UNK         0.3460 
     86 H86        26.9512  -46.1198  -57.4253 H         1 UNK         0.2989 
     87 H87        25.4474  -46.3732  -60.6354 H         1 UNK         0.0559 
     88 H88        28.3417  -45.6612  -59.9185 H         1 UNK         0.0848 
     89 H89        27.3192  -44.7952  -61.0572 H         1 UNK         0.0848 
     90 H90        27.8121  -46.4440  -61.4070 H         1 UNK         0.0848 
     91 H91        27.2512  -47.6364  -58.5933 H         1 UNK         0.3144 
     92 H92        25.7532  -50.8284  -59.2525 H         1 UNK         0.0727 
     93 H93        28.1191  -51.5061  -59.5551 H         1 UNK         0.0790 
     94 H94        28.5831  -49.8319  -59.8507 H         1 UNK         0.0790 
     95 H95        27.5206  -50.6632  -60.9746 H         1 UNK         0.0790 
     96 H96        27.8315  -50.1349  -57.4439 H         1 UNK         0.3215 
     97 H97        25.6020  -49.9206  -54.6114 H         1 UNK         0.0863 
     98 H98        27.1657  -51.7201  -53.9545 H         1 UNK         0.0808 
     99 H99        27.7373  -51.8809  -55.6115 H         1 UNK         0.0808 
    100 H100       26.0768  -52.2976  -55.2069 H         1 UNK         0.0808 
    101 H101       28.4711  -49.6153  -54.9880 H         1 UNK         0.3118 
    102 H102       28.4136  -46.0397  -54.7918 H         1 UNK         0.0546 
    103 H103       28.5269  -46.6362  -52.4634 H         1 UNK         0.0828 
    104 H104       30.1750  -46.7500  -53.0588 H         1 UNK         0.0828 
    105 H105       29.2279  -48.2080  -52.8004 H         1 UNK         0.0828 
    106 H106       30.5843  -47.7944  -55.1581 H         1 UNK         0.3005 
    107 H107       30.0613  -48.5439  -58.5800 H         1 UNK         0.1257 
    108 H108       30.9383  -46.2557  -58.9109 H         1 UNK         0.0775 
    109 H109       32.0484  -47.5313  -59.2870 H         1 UNK         0.0775 
    110 H110       33.3378  -43.9884  -57.3549 H         1 UNK         0.0840 
    111 H111       31.9338  -44.2805  -58.3389 H         1 UNK         0.0840 
    112 H112       32.2524  -48.9529  -56.7283 H         1 UNK         0.2987 
    113 H113       30.9961  -52.2672  -55.9149 H         1 UNK         0.0785 
    114 H114       32.5723  -52.1899  -57.8671 H         1 UNK         0.0798 
    115 H115       33.3905  -52.6296  -56.3785 H         1 UNK         0.0798 
    116 H116       33.5602  -51.0005  -57.0299 H         1 UNK         0.0798 
    117 H117       33.0208  -50.8002  -54.5947 H         1 UNK         0.3079 
    118 H118       31.1241  -49.2706  -52.0568 H         1 UNK         0.0794 
    119 H119       32.6737  -51.9007  -51.8026 H         1 UNK         0.0786 
    120 H120       31.0078  -51.6505  -51.2987 H         1 UNK         0.0786 
    121 H121       32.3001  -50.7779  -50.4936 H         1 UNK         0.0786 
    122 H122       33.8613  -49.6692  -52.0601 H         1 UNK         0.3032 
    123 H123       35.4127  -48.3908  -52.8987 H         1 UNK         0.1094 
    124 H124       34.7280  -46.4509  -55.1601 H         1 UNK         0.0794 
    125 H125       36.3254  -47.0220  -54.6916 H         1 UNK         0.0794 
    126 H126       35.1684  -48.1340  -55.4054 H         1 UNK         0.0794 
    127 H127       34.9213  -45.5632  -52.9488 H         1 UNK         0.3016 
@<TRIPOS>BOND
     1    1    2 1    
     2    1   67 1    
     3    1   68 1    
     4    1   69 1    
     5    2    3 2    
     6    2    4 am   BACKBONE|DICT|INTERRES
     7    4    5 1    
     8    4   70 1    
     9    5    6 1    
    10    5   65 1    
    11    5   71 1    
    12    6    7 1    
    13    6   72 1    
    14    6   73 1    
    15    7    8 1    
    16    8    9 1    
    17    8   74 1    
    18    8   75 1    
    19    9   10 ar   
    20    9   14 ar   
    21   10   11 ar   
    22   10   76 1    
    23   11   12 ar   
    24   11   48 1    
    25   12   13 ar   
    26   12   77 1    
    27   13   14 ar   
    28   13   15 1    
    29   14   78 1    
    30   15   16 1    
    31   15   79 1    
    32   15   80 1    
    33   16   17 1    
    34   17   18 1    
    35   17   81 1    
    36   17   82 1    
    37   18   19 1    
    38   18   22 1    
    39   18   83 1    
    40   19   20 am   BACKBONE|DICT|INTERRES
    41   19   21 2    
    42   20   84 1    
    43   20   85 1    
    44   22   23 am   BACKBONE|DICT|INTERRES
    45   22   86 1    
    46   23   24 2    
    47   23   25 1    
    48   25   26 1    
    49   25   27 1    
    50   25   87 1    
    51   26   88 1    
    52   26   89 1    
    53   26   90 1    
    54   27   28 am   BACKBONE|DICT|INTERRES
    55   27   91 1    
    56   28   29 2    
    57   28   30 1    
    58   30   31 1    
    59   30   32 1    
    60   30   92 1    
    61   31   93 1    
    62   31   94 1    
    63   31   95 1    
    64   32   33 am   BACKBONE|DICT|INTERRES
    65   32   96 1    
    66   33   34 2    
    67   33   35 1    
    68   35   36 1    
    69   35   37 1    
    70   35   97 1    
    71   36   98 1    
    72   36   99 1    
    73   36  100 1    
    74   37   38 am   BACKBONE|DICT|INTERRES
    75   37  101 1    
    76   38   39 2    
    77   38   40 1    
    78   40   41 1    
    79   40   42 1    
    80   40  102 1    
    81   41  103 1    
    82   41  104 1    
    83   41  105 1    
    84   42   43 am   BACKBONE|DICT|INTERRES
    85   42  106 1    
    86   43   44 2    
    87   43   45 1    
    88   45   46 1    
    89   45   49 1    
    90   45  107 1    
    91   46   47 1    
    92   46  108 1    
    93   46  109 1    
    94   47   48 1    
    95   48  110 1    
    96   48  111 1    
    97   49   50 am   BACKBONE|DICT|INTERRES
    98   49  112 1    
    99   50   51 2    
   100   50   52 1    
   101   52   53 1    
   102   52   54 1    
   103   52  113 1    
   104   53  114 1    
   105   53  115 1    
   106   53  116 1    
   107   54   55 am   BACKBONE|DICT|INTERRES
   108   54  117 1    
   109   55   56 2    
   110   55   57 1    
   111   57   58 1    
   112   57   59 1    
   113   57  118 1    
   114   58  119 1    
   115   58  120 1    
   116   58  121 1    
   117   59   60 am   BACKBONE|DICT|INTERRES
   118   59  122 1    
   119   60   61 2    
   120   60   62 1    
   121   62   63 1    
   122   62   64 1    
   123   62  123 1    
   124   63  124 1    
   125   63  125 1    
   126   63  126 1    
   127   64   65 am   BACKBONE|DICT|INTERRES
   128   64  127 1    
   129   65   66 2    
@<TRIPOS>SUBSTRUCTURE
     1 UNK         1 GROUP             0       ****    0 ROOT    
