@<TRIPOS>MOLECULE
3R134
127   129    1
SMALL
USER_CHARGES


@<TRIPOS>ATOM
      1 CA         32.9517  -43.5335  -51.1702 C.3       0 UNK        -0.1968 
      2 C          34.1471  -44.3194  -51.6856 C.2       0 UNK         0.4852 
      3 O          35.0953  -44.5582  -50.9355 O.2       0 UNK        -0.5359 
      4 N          34.1121  -44.7032  -52.9686 N.am      1 UNK        -0.4300 
      5 CA         35.1477  -45.4888  -53.6441 C.3       1 UNK         0.0863 
      6 C6         35.0600  -45.3236  -55.1906 C.3       11 UNK        -0.0953 
      7 S7         34.0329  -46.4802  -56.1708 S.3       11 UNK        -0.2369 
      8 C8         32.4293  -46.5401  -55.3092 C.3       11 UNK         0.0226 
      9 C9         31.6539  -45.2298  -55.2962 C.ar      11 UNK        -0.0699 
     10 C10        31.0732  -44.7979  -54.1028 C.ar      11 UNK        -0.0804 
     11 C11        30.2467  -43.6705  -54.0711 C.ar      11 UNK        -0.0871 
     12 C12        30.0689  -42.9301  -55.2420 C.ar      11 UNK        -0.1008 
     13 C13        30.6514  -43.3387  -56.4489 C.ar      11 UNK        -0.0735 
     14 C14        31.4379  -44.4958  -56.4666 C.ar      11 UNK        -0.0945 
     15 C15        30.4782  -42.5342  -57.7368 C.3       11 UNK         0.0169 
     16 S16        28.8798  -41.6609  -57.8864 S.3       11 UNK        -0.2669 
     17 C17        27.7173  -43.0125  -58.2888 C.3       11 UNK        -0.0850 
     18 CA         26.8396  -43.4982  -57.0926 C.3       10 UNK         0.0855 
     19 C          25.6960  -42.5259  -56.6616 C.2       10 UNK         0.5543 
     20 N          25.8654  -41.2224  -56.8293 N.am      10 UNK        -0.7343 
     21 O          24.6697  -42.9394  -56.1241 O.2       10 UNK        -0.5027 
     22 N          26.3635  -44.8720  -57.3114 N.am      10 UNK        -0.4495 
     23 C          25.5376  -45.2746  -58.2882 C.2       10 UNK         0.4903 
     24 O          25.0470  -44.5260  -59.1356 O.2       10 UNK        -0.4860 
     25 CA         25.2555  -46.7884  -58.3348 C.3       9 UNK         0.0227 
     26 CB         24.4669  -47.2311  -59.5856 C.3       9 UNK        -0.1964 
     27 N          26.4920  -47.5630  -58.1799 N.am      9 UNK        -0.4231 
     28 C          27.5700  -47.5548  -58.9801 C.2       9 UNK         0.5014 
     29 O          27.6276  -46.9661  -60.0604 O.2       9 UNK        -0.5270 
     30 CA         28.8171  -48.3068  -58.4801 C.3       8 UNK         0.0284 
     31 CB         29.8581  -47.3154  -57.9398 C.3       8 UNK        -0.1977 
     32 N          28.5294  -49.3089  -57.4499 N.am      8 UNK        -0.4342 
     33 C          27.9184  -50.4779  -57.6909 C.2       8 UNK         0.5039 
     34 O          27.5770  -50.8586  -58.8112 O.2       8 UNK        -0.5547 
     35 CA         27.6199  -51.3600  -56.4721 C.3       7 UNK         0.0281 
     36 CB         28.8752  -52.1369  -56.0554 C.3       7 UNK        -0.1963 
     37 N          27.1253  -50.5679  -55.3438 N.am      7 UNK        -0.4444 
     38 C          25.8647  -50.1229  -55.2416 C.2       7 UNK         0.5104 
     39 O          24.9875  -50.3516  -56.0742 O.2       7 UNK        -0.5100 
     40 CA         25.5195  -49.2708  -54.0087 C.3       6 UNK         0.0396 
     41 CB         25.0501  -50.1663  -52.8514 C.3       6 UNK        -0.1801 
     42 N          26.6281  -48.4295  -53.5536 N.am      6 UNK        -0.4747 
     43 C          27.1108  -47.3760  -54.2274 C.2       6 UNK         0.5012 
     44 O          26.6853  -47.0028  -55.3202 O.2       6 UNK        -0.5003 
     45 CA         28.2853  -46.6225  -53.5827 C.3       5 UNK         0.0782 
     46 C46        27.7566  -45.4690  -52.6865 C.3       11 UNK        -0.0868 
     47 S47        29.0438  -44.6212  -51.7028 S.3       11 UNK        -0.2515 
     48 C48        29.5284  -43.2372  -52.7937 C.3       11 UNK         0.0199 
     49 N          29.2291  -47.5065  -52.8845 N.am      5 UNK        -0.4607 
     50 C          29.9598  -48.4706  -53.4605 C.2       4 UNK         0.5031 
     51 O          29.8078  -48.8365  -54.6300 O.2       4 UNK        -0.5119 
     52 CA         31.0399  -49.0992  -52.5603 C.3       4 UNK         0.0263 
     53 CB         30.4528  -50.2103  -51.6665 C.3       4 UNK        -0.1967 
     54 N          32.2233  -49.5367  -53.3156 N.am      4 UNK        -0.4237 
     55 C          32.3709  -50.6195  -54.0967 C.2       3 UNK         0.4908 
     56 O          31.5641  -51.5454  -54.1614 O.2       3 UNK        -0.5102 
     57 CA         33.6378  -50.6992  -54.9710 C.3       3 UNK         0.0241 
     58 CB         33.2966  -50.3570  -56.4315 C.3       3 UNK        -0.1971 
     59 N          34.7316  -49.8360  -54.5159 N.am      3 UNK        -0.4139 
     60 C          35.5040  -50.0946  -53.4513 C.2       2 UNK         0.5016 
     61 O          35.4046  -51.1146  -52.7683 O.2       2 UNK        -0.5319 
     62 CA         36.5629  -49.0413  -53.0692 C.3       2 UNK         0.0286 
     63 CB         37.9433  -49.4543  -53.6058 C.3       2 UNK        -0.1963 
     64 N          36.2728  -47.6670  -53.5028 N.am      2 UNK        -0.4790 
     65 C          35.1944  -46.9540  -53.1482 C.2       1 UNK         0.5024 
     66 O          34.2608  -47.4228  -52.4903 O.2       1 UNK        -0.4888 
     67 H67        32.5256  -42.9107  -51.9556 H         1 UNK         0.0892 
     68 H68        32.1811  -44.2119  -50.8049 H         1 UNK         0.0892 
     69 H69        33.2478  -42.8792  -50.3506 H         1 UNK         0.0892 
     70 H70        33.3053  -44.4777  -53.5329 H         1 UNK         0.3107 
     71 H71        36.0988  -45.0452  -53.3403 H         1 UNK         0.0773 
     72 H72        34.7519  -44.3076  -55.4438 H         1 UNK         0.0680 
     73 H73        36.0677  -45.4118  -55.5996 H         1 UNK         0.0680 
     74 H74        32.5767  -46.9024  -54.2960 H         1 UNK         0.0650 
     75 H75        31.8120  -47.2942  -55.7928 H         1 UNK         0.0650 
     76 H76        31.2220  -45.3779  -53.2028 H         1 UNK         0.1397 
     77 H77        29.4602  -42.0372  -55.2123 H         1 UNK         0.1363 
     78 H78        31.8814  -44.8313  -57.3942 H         1 UNK         0.1355 
     79 H79        31.2757  -41.7914  -57.7768 H         1 UNK         0.0707 
     80 H80        30.6136  -43.1743  -58.6101 H         1 UNK         0.0707 
     81 H81        28.2983  -43.8489  -58.6815 H         1 UNK         0.1034 
     82 H82        27.0840  -42.6901  -59.1172 H         1 UNK         0.1034 
     83 H83        27.4844  -43.5780  -56.2179 H         1 UNK         0.0482 
     84 H84        26.7207  -40.8748  -57.2390 H         1 UNK         0.3460 
     85 H85        25.1427  -40.5833  -56.5379 H         1 UNK         0.3460 
     86 H86        26.6450  -45.5608  -56.6202 H         1 UNK         0.2989 
     87 H87        24.6425  -47.0147  -57.4610 H         1 UNK         0.0559 
     88 H88        24.9939  -46.9866  -60.5082 H         1 UNK         0.0848 
     89 H89        23.4957  -46.7367  -59.6275 H         1 UNK         0.0848 
     90 H90        24.2838  -48.3056  -59.5781 H         1 UNK         0.0848 
     91 H91        26.5913  -48.0241  -57.2846 H         1 UNK         0.3144 
     92 H92        29.2517  -48.8163  -59.3428 H         1 UNK         0.0727 
     93 H93        30.8072  -47.8171  -57.7555 H         1 UNK         0.0790 
     94 H94        29.5292  -46.8484  -57.0104 H         1 UNK         0.0790 
     95 H95        30.0534  -46.5159  -58.6560 H         1 UNK         0.0790 
     96 H96        28.8270  -49.0985  -56.5020 H         1 UNK         0.3215 
     97 H97        26.8526  -52.0844  -56.7551 H         1 UNK         0.0863 
     98 H98        29.7050  -51.4616  -55.8515 H         1 UNK         0.0808 
     99 H99        29.1964  -52.8126  -56.8491 H         1 UNK         0.0808 
    100 H100       28.7014  -52.7392  -55.1636 H         1 UNK         0.0808 
    101 H101       27.7973  -50.2989  -54.6382 H         1 UNK         0.3118 
    102 H102       24.6921  -48.6134  -54.2849 H         1 UNK         0.0546 
    103 H103       24.7192  -49.5731  -51.9988 H         1 UNK         0.0828 
    104 H104       25.8406  -50.8358  -52.5096 H         1 UNK         0.0828 
    105 H105       24.2071  -50.7878  -53.1569 H         1 UNK         0.0828 
    106 H106       27.0493  -48.6628  -52.6657 H         1 UNK         0.3005 
    107 H107       28.8289  -46.1777  -54.4172 H         1 UNK         0.1257 
    108 H108       27.0215  -45.8504  -51.9748 H         1 UNK         0.0775 
    109 H109       27.2285  -44.7299  -53.2926 H         1 UNK         0.0775 
    110 H110       28.6334  -42.6626  -53.0382 H         1 UNK         0.0840 
    111 H111       30.1785  -42.5628  -52.2365 H         1 UNK         0.0840 
    112 H112       29.4025  -47.2704  -51.9177 H         1 UNK         0.2987 
    113 H113       31.4117  -48.3118  -51.9022 H         1 UNK         0.0785 
    114 H114       31.2287  -50.6953  -51.0741 H         1 UNK         0.0798 
    115 H115       29.7208  -49.8021  -50.9689 H         1 UNK         0.0798 
    116 H116       29.9433  -50.9790  -52.2482 H         1 UNK         0.0798 
    117 H117       32.9938  -48.8780  -53.2921 H         1 UNK         0.3079 
    118 H118       33.9857  -51.7342  -54.9414 H         1 UNK         0.0794 
    119 H119       32.5204  -51.0208  -56.8154 H         1 UNK         0.0786 
    120 H120       34.1655  -50.4672  -57.0804 H         1 UNK         0.0786 
    121 H121       32.9263  -49.3373  -56.5341 H         1 UNK         0.0786 
    122 H122       34.8889  -48.9790  -55.0272 H         1 UNK         0.3032 
    123 H123       36.6110  -49.0312  -51.9779 H         1 UNK         0.1094 
    124 H124       37.9708  -49.4482  -54.6963 H         1 UNK         0.0794 
    125 H125       38.7268  -48.7878  -53.2448 H         1 UNK         0.0794 
    126 H126       38.2048  -50.4621  -53.2793 H         1 UNK         0.0794 
    127 H127       36.9821  -47.2189  -54.0661 H         1 UNK         0.3016 
@<TRIPOS>BOND
     1    1    2 1    
     2    1   67 1    
     3    1   68 1    
     4    1   69 1    
     5    2    3 2    
     6    2    4 am   BACKBONE|DICT|INTERRES
     7    4    5 1    
     8    4   70 1    
     9    5    6 1    
    10    5   65 1    
    11    5   71 1    
    12    6    7 1    
    13    6   72 1    
    14    6   73 1    
    15    7    8 1    
    16    8    9 1    
    17    8   74 1    
    18    8   75 1    
    19    9   10 ar   
    20    9   14 ar   
    21   10   11 ar   
    22   10   76 1    
    23   11   12 ar   
    24   11   48 1    
    25   12   13 ar   
    26   12   77 1    
    27   13   14 ar   
    28   13   15 1    
    29   14   78 1    
    30   15   16 1    
    31   15   79 1    
    32   15   80 1    
    33   16   17 1    
    34   17   18 1    
    35   17   81 1    
    36   17   82 1    
    37   18   19 1    
    38   18   22 1    
    39   18   83 1    
    40   19   20 am   BACKBONE|DICT|INTERRES
    41   19   21 2    
    42   20   84 1    
    43   20   85 1    
    44   22   23 am   BACKBONE|DICT|INTERRES
    45   22   86 1    
    46   23   24 2    
    47   23   25 1    
    48   25   26 1    
    49   25   27 1    
    50   25   87 1    
    51   26   88 1    
    52   26   89 1    
    53   26   90 1    
    54   27   28 am   BACKBONE|DICT|INTERRES
    55   27   91 1    
    56   28   29 2    
    57   28   30 1    
    58   30   31 1    
    59   30   32 1    
    60   30   92 1    
    61   31   93 1    
    62   31   94 1    
    63   31   95 1    
    64   32   33 am   BACKBONE|DICT|INTERRES
    65   32   96 1    
    66   33   34 2    
    67   33   35 1    
    68   35   36 1    
    69   35   37 1    
    70   35   97 1    
    71   36   98 1    
    72   36   99 1    
    73   36  100 1    
    74   37   38 am   BACKBONE|DICT|INTERRES
    75   37  101 1    
    76   38   39 2    
    77   38   40 1    
    78   40   41 1    
    79   40   42 1    
    80   40  102 1    
    81   41  103 1    
    82   41  104 1    
    83   41  105 1    
    84   42   43 am   BACKBONE|DICT|INTERRES
    85   42  106 1    
    86   43   44 2    
    87   43   45 1    
    88   45   46 1    
    89   45   49 1    
    90   45  107 1    
    91   46   47 1    
    92   46  108 1    
    93   46  109 1    
    94   47   48 1    
    95   48  110 1    
    96   48  111 1    
    97   49   50 am   BACKBONE|DICT|INTERRES
    98   49  112 1    
    99   50   51 2    
   100   50   52 1    
   101   52   53 1    
   102   52   54 1    
   103   52  113 1    
   104   53  114 1    
   105   53  115 1    
   106   53  116 1    
   107   54   55 am   BACKBONE|DICT|INTERRES
   108   54  117 1    
   109   55   56 2    
   110   55   57 1    
   111   57   58 1    
   112   57   59 1    
   113   57  118 1    
   114   58  119 1    
   115   58  120 1    
   116   58  121 1    
   117   59   60 am   BACKBONE|DICT|INTERRES
   118   59  122 1    
   119   60   61 2    
   120   60   62 1    
   121   62   63 1    
   122   62   64 1    
   123   62  123 1    
   124   63  124 1    
   125   63  125 1    
   126   63  126 1    
   127   64   65 am   BACKBONE|DICT|INTERRES
   128   64  127 1    
   129   65   66 2    
@<TRIPOS>SUBSTRUCTURE
     1 UNK         1 GROUP             0       ****    0 ROOT    
