@<TRIPOS>MOLECULE
3R134
127   129    1
SMALL
USER_CHARGES


@<TRIPOS>ATOM
      1 CA         32.5038  -42.0614  -58.6902 C.3       0 UNK        -0.1968 
      2 C          32.5072  -43.1220  -57.6000 C.2       0 UNK         0.4852 
      3 O          31.7541  -44.0930  -57.6810 O.2       0 UNK        -0.5359 
      4 N          33.3509  -42.9393  -56.5776 N.am      1 UNK        -0.4300 
      5 CA         33.5451  -43.8909  -55.4808 C.3       1 UNK         0.0863 
      6 C6         34.2912  -43.2559  -54.2835 C.3       11 UNK        -0.0953 
      7 S7         33.3931  -41.8342  -53.5835 S.3       11 UNK        -0.2369 
      8 C8         32.9105  -42.4717  -51.9450 C.3       11 UNK         0.0226 
      9 C9         31.8090  -43.5287  -51.9829 C.ar      11 UNK        -0.0699 
     10 C10        31.9120  -44.6675  -51.1770 C.ar      11 UNK        -0.0804 
     11 C11        30.8614  -45.5875  -51.1032 C.ar      11 UNK        -0.0871 
     12 C12        29.7079  -45.3652  -51.8606 C.ar      11 UNK        -0.1008 
     13 C13        29.5966  -44.2544  -52.7018 C.ar      11 UNK        -0.0735 
     14 C14        30.6544  -43.3359  -52.7504 C.ar      11 UNK        -0.0945 
     15 C15        28.3045  -44.0952  -53.5074 C.3       11 UNK         0.0169 
     16 S16        28.0544  -42.4777  -54.3195 S.3       11 UNK        -0.2669 
     17 C17        28.9280  -42.7015  -55.9089 C.3       11 UNK        -0.0850 
     18 CA         27.9317  -42.9815  -57.0664 C.3       10 UNK         0.0855 
     19 C          28.5813  -42.7842  -58.4683 C.2       10 UNK         0.5543 
     20 N          28.5679  -43.7631  -59.3664 N.am      10 UNK        -0.7343 
     21 O          29.0824  -41.7011  -58.7582 O.2       10 UNK        -0.5027 
     22 N          27.2614  -44.2775  -56.8888 N.am      10 UNK        -0.4495 
     23 C          26.0490  -44.5874  -57.3607 C.2       10 UNK         0.4903 
     24 O          25.3127  -43.7889  -57.9425 O.2       10 UNK        -0.4860 
     25 CA         25.5951  -46.0435  -57.1418 C.3       9 UNK         0.0227 
     26 CB         24.4362  -46.4574  -58.0725 C.3       9 UNK        -0.1964 
     27 N          26.6936  -47.0145  -57.2268 N.am      9 UNK        -0.4231 
     28 C          27.5044  -47.2489  -58.2719 C.2       9 UNK         0.5014 
     29 O          27.4917  -46.5956  -59.3157 O.2       9 UNK        -0.5270 
     30 CA         28.5012  -48.4116  -58.1247 C.3       8 UNK         0.0284 
     31 CB         29.8468  -47.9048  -57.5750 C.3       8 UNK        -0.1977 
     32 N          27.9614  -49.4772  -57.2701 N.am      8 UNK        -0.4342 
     33 C          27.0774  -50.3962  -57.6927 C.2       8 UNK         0.5039 
     34 O          26.7717  -50.5482  -58.8760 O.2       8 UNK        -0.5547 
     35 CA         26.3846  -51.2764  -56.6344 C.3       7 UNK         0.0281 
     36 CB         26.9731  -52.6961  -56.5957 C.3       7 UNK        -0.1963 
     37 N          26.4194  -50.6896  -55.2927 N.am      7 UNK        -0.4444 
     38 C          25.5610  -49.7518  -54.8651 C.2       7 UNK         0.5104 
     39 O          24.6134  -49.3374  -55.5320 O.2       7 UNK        -0.5100 
     40 CA         25.8170  -49.1397  -53.4750 C.3       6 UNK         0.0396 
     41 CB         25.0060  -49.8841  -52.4033 C.3       6 UNK        -0.1801 
     42 N          27.2303  -49.1182  -53.0860 N.am      6 UNK        -0.4747 
     43 C          28.1989  -48.4636  -53.7430 C.2       6 UNK         0.5012 
     44 O          27.9897  -47.7934  -54.7543 O.2       6 UNK        -0.5003 
     45 CA         29.6416  -48.6014  -53.2138 C.3       5 UNK         0.0782 
     46 C46        29.7151  -48.8326  -51.6797 C.3       11 UNK        -0.0868 
     47 S47        31.3394  -48.3453  -51.0054 S.3       11 UNK        -0.2515 
     48 C48        30.9478  -46.7795  -50.1542 C.3       11 UNK         0.0199 
     49 N          30.4350  -49.5844  -53.9656 N.am      5 UNK        -0.4607 
     50 C          30.1058  -50.8443  -54.2985 C.2       4 UNK         0.5031 
     51 O          28.9983  -51.3427  -54.0959 O.2       4 UNK        -0.5119 
     52 CA         31.1870  -51.7140  -54.9730 C.3       4 UNK         0.0263 
     53 CB         31.0038  -51.7388  -56.4993 C.3       4 UNK        -0.1967 
     54 N          32.5534  -51.2847  -54.6785 N.am      4 UNK        -0.4237 
     55 C          33.1490  -51.3444  -53.4796 C.2       3 UNK         0.4908 
     56 O          32.6617  -51.9101  -52.5004 O.2       3 UNK        -0.5102 
     57 CA         34.5136  -50.6375  -53.3434 C.3       3 UNK         0.0241 
     58 CB         35.6533  -51.6698  -53.3232 C.3       3 UNK        -0.1971 
     59 N          34.7971  -49.6278  -54.3765 N.am      3 UNK        -0.4139 
     60 C          34.0605  -48.5323  -54.6085 C.2       2 UNK         0.5016 
     61 O          33.0118  -48.2694  -54.0146 O.2       2 UNK        -0.5319 
     62 CA         34.5315  -47.5997  -55.7265 C.3       2 UNK         0.0286 
     63 CB         34.1156  -48.1414  -57.1076 C.3       2 UNK        -0.1963 
     64 N          33.9098  -46.3032  -55.4869 N.am      2 UNK        -0.4790 
     65 C          34.3116  -45.1306  -55.9783 C.2       1 UNK         0.5024 
     66 O          35.2648  -44.9994  -56.7507 O.2       1 UNK        -0.4888 
     67 H67        33.4717  -41.5669  -58.7704 H         1 UNK         0.0892 
     68 H68        32.2735  -42.5102  -59.6563 H         1 UNK         0.0892 
     69 H69        31.7485  -41.3058  -58.4770 H         1 UNK         0.0892 
     70 H70        33.9546  -42.1301  -56.5640 H         1 UNK         0.3107 
     71 H71        32.5582  -44.2104  -55.1365 H         1 UNK         0.0773 
     72 H72        35.2831  -42.9131  -54.5846 H         1 UNK         0.0680 
     73 H73        34.4530  -43.9969  -53.4981 H         1 UNK         0.0680 
     74 H74        32.5544  -41.6336  -51.3448 H         1 UNK         0.0650 
     75 H75        33.7998  -42.8513  -51.4393 H         1 UNK         0.0650 
     76 H76        32.7962  -44.8178  -50.5725 H         1 UNK         0.1397 
     77 H77        28.8801  -46.0554  -51.7885 H         1 UNK         0.1363 
     78 H78        30.5834  -42.4516  -53.3664 H         1 UNK         0.1355 
     79 H79        27.4592  -44.2501  -52.8352 H         1 UNK         0.0707 
     80 H80        28.2483  -44.8912  -54.2506 H         1 UNK         0.0707 
     81 H81        29.4905  -41.7849  -56.0971 H         1 UNK         0.1034 
     82 H82        29.6719  -43.4966  -55.8296 H         1 UNK         0.1034 
     83 H83        27.1625  -42.2081  -57.0134 H         1 UNK         0.0482 
     84 H84        28.9892  -43.6037  -60.2668 H         1 UNK         0.3460 
     85 H85        28.1364  -44.6581  -59.1676 H         1 UNK         0.3460 
     86 H86        27.8034  -45.0050  -56.4484 H         1 UNK         0.2989 
     87 H87        25.2274  -46.0948  -56.1159 H         1 UNK         0.0559 
     88 H88        23.5651  -45.8183  -57.9239 H         1 UNK         0.0848 
     89 H89        24.1207  -47.4826  -57.8773 H         1 UNK         0.0848 
     90 H90        24.7172  -46.3866  -59.1239 H         1 UNK         0.0848 
     91 H91        26.8807  -47.5317  -56.3737 H         1 UNK         0.3144 
     92 H92        28.6828  -48.8164  -59.1227 H         1 UNK         0.0727 
     93 H93        29.7641  -47.5055  -56.5651 H         1 UNK         0.0790 
     94 H94        30.2447  -47.1048  -58.2016 H         1 UNK         0.0790 
     95 H95        30.5924  -48.6965  -57.5624 H         1 UNK         0.0790 
     96 H96        28.1300  -49.3890  -56.2772 H         1 UNK         0.3215 
     97 H97        25.3420  -51.3702  -56.9472 H         1 UNK         0.0863 
     98 H98        26.3431  -53.3623  -56.0061 H         1 UNK         0.0808 
     99 H99        27.9688  -52.7180  -56.1581 H         1 UNK         0.0808 
    100 H100       27.0428  -53.1225  -57.5975 H         1 UNK         0.0808 
    101 H101       27.1931  -50.9635  -54.6906 H         1 UNK         0.3118 
    102 H102       25.4701  -48.1046  -53.5066 H         1 UNK         0.0546 
    103 H103       25.3254  -50.9222  -52.3031 H         1 UNK         0.0828 
    104 H104       23.9442  -49.8932  -52.6541 H         1 UNK         0.0828 
    105 H105       25.1016  -49.4062  -51.4283 H         1 UNK         0.0828 
    106 H106       27.4896  -49.6951  -52.2985 H         1 UNK         0.3005 
    107 H107       30.1082  -47.6386  -53.4289 H         1 UNK         0.1257 
    108 H108       28.9413  -48.2783  -51.1467 H         1 UNK         0.0775 
    109 H109       29.5470  -49.8840  -51.4401 H         1 UNK         0.0775 
    110 H110       30.0173  -46.8799  -49.5937 H         1 UNK         0.0840 
    111 H111       31.7211  -46.6004  -49.4055 H         1 UNK         0.0840 
    112 H112       31.3859  -49.2747  -54.1492 H         1 UNK         0.2987 
    113 H113       31.0614  -52.7309  -54.5952 H         1 UNK         0.0785 
    114 H114       29.9809  -51.9824  -56.7803 H         1 UNK         0.0798 
    115 H115       31.6481  -52.4881  -56.9595 H         1 UNK         0.0798 
    116 H116       31.2418  -50.7769  -56.9504 H         1 UNK         0.0798 
    117 H117       33.0500  -50.8188  -55.4227 H         1 UNK         0.3079 
    118 H118       34.5028  -50.1204  -52.3814 H         1 UNK         0.0794 
    119 H119       36.6144  -51.1979  -53.1181 H         1 UNK         0.0786 
    120 H120       35.7336  -52.2009  -54.2726 H         1 UNK         0.0786 
    121 H121       35.4909  -52.4171  -52.5450 H         1 UNK         0.0786 
    122 H122       35.6326  -49.7745  -54.9256 H         1 UNK         0.3032 
    123 H123       35.6178  -47.4977  -55.6710 H         1 UNK         0.1094 
    124 H124       33.0333  -48.2486  -57.1873 H         1 UNK         0.0794 
    125 H125       34.4427  -47.4796  -57.9097 H         1 UNK         0.0794 
    126 H126       34.5584  -49.1195  -57.2991 H         1 UNK         0.0794 
    127 H127       33.1489  -46.3466  -54.8174 H         1 UNK         0.3016 
@<TRIPOS>BOND
     1    1    2 1    
     2    1   67 1    
     3    1   68 1    
     4    1   69 1    
     5    2    3 2    
     6    2    4 am   BACKBONE|DICT|INTERRES
     7    4    5 1    
     8    4   70 1    
     9    5    6 1    
    10    5   65 1    
    11    5   71 1    
    12    6    7 1    
    13    6   72 1    
    14    6   73 1    
    15    7    8 1    
    16    8    9 1    
    17    8   74 1    
    18    8   75 1    
    19    9   10 ar   
    20    9   14 ar   
    21   10   11 ar   
    22   10   76 1    
    23   11   12 ar   
    24   11   48 1    
    25   12   13 ar   
    26   12   77 1    
    27   13   14 ar   
    28   13   15 1    
    29   14   78 1    
    30   15   16 1    
    31   15   79 1    
    32   15   80 1    
    33   16   17 1    
    34   17   18 1    
    35   17   81 1    
    36   17   82 1    
    37   18   19 1    
    38   18   22 1    
    39   18   83 1    
    40   19   20 am   BACKBONE|DICT|INTERRES
    41   19   21 2    
    42   20   84 1    
    43   20   85 1    
    44   22   23 am   BACKBONE|DICT|INTERRES
    45   22   86 1    
    46   23   24 2    
    47   23   25 1    
    48   25   26 1    
    49   25   27 1    
    50   25   87 1    
    51   26   88 1    
    52   26   89 1    
    53   26   90 1    
    54   27   28 am   BACKBONE|DICT|INTERRES
    55   27   91 1    
    56   28   29 2    
    57   28   30 1    
    58   30   31 1    
    59   30   32 1    
    60   30   92 1    
    61   31   93 1    
    62   31   94 1    
    63   31   95 1    
    64   32   33 am   BACKBONE|DICT|INTERRES
    65   32   96 1    
    66   33   34 2    
    67   33   35 1    
    68   35   36 1    
    69   35   37 1    
    70   35   97 1    
    71   36   98 1    
    72   36   99 1    
    73   36  100 1    
    74   37   38 am   BACKBONE|DICT|INTERRES
    75   37  101 1    
    76   38   39 2    
    77   38   40 1    
    78   40   41 1    
    79   40   42 1    
    80   40  102 1    
    81   41  103 1    
    82   41  104 1    
    83   41  105 1    
    84   42   43 am   BACKBONE|DICT|INTERRES
    85   42  106 1    
    86   43   44 2    
    87   43   45 1    
    88   45   46 1    
    89   45   49 1    
    90   45  107 1    
    91   46   47 1    
    92   46  108 1    
    93   46  109 1    
    94   47   48 1    
    95   48  110 1    
    96   48  111 1    
    97   49   50 am   BACKBONE|DICT|INTERRES
    98   49  112 1    
    99   50   51 2    
   100   50   52 1    
   101   52   53 1    
   102   52   54 1    
   103   52  113 1    
   104   53  114 1    
   105   53  115 1    
   106   53  116 1    
   107   54   55 am   BACKBONE|DICT|INTERRES
   108   54  117 1    
   109   55   56 2    
   110   55   57 1    
   111   57   58 1    
   112   57   59 1    
   113   57  118 1    
   114   58  119 1    
   115   58  120 1    
   116   58  121 1    
   117   59   60 am   BACKBONE|DICT|INTERRES
   118   59  122 1    
   119   60   61 2    
   120   60   62 1    
   121   62   63 1    
   122   62   64 1    
   123   62  123 1    
   124   63  124 1    
   125   63  125 1    
   126   63  126 1    
   127   64   65 am   BACKBONE|DICT|INTERRES
   128   64  127 1    
   129   65   66 2    
@<TRIPOS>SUBSTRUCTURE
     1 UNK         1 GROUP             0       ****    0 ROOT    
