@<TRIPOS>MOLECULE
3R134
127   129    1
SMALL
USER_CHARGES


@<TRIPOS>ATOM
      1 CA         36.2584  -45.9711  -49.1647 C.3       0 UNK        -0.1968 
      2 C          35.9005  -46.3115  -50.6034 C.2       0 UNK         0.4852 
      3 O          35.8040  -47.4909  -50.9441 O.2       0 UNK        -0.5359 
      4 N          35.6934  -45.2878  -51.4441 N.am      1 UNK        -0.4300 
      5 CA         35.3300  -45.3976  -52.8647 C.3       1 UNK         0.0863 
      6 C6         35.3229  -44.0160  -53.5711 C.3       11 UNK        -0.0953 
      7 S7         34.3188  -42.7433  -52.7199 S.3       11 UNK        -0.2369 
      8 C8         33.3277  -42.0422  -54.0774 C.3       11 UNK         0.0226 
      9 C9         32.1859  -42.9573  -54.4957 C.ar      11 UNK        -0.0699 
     10 C10        32.2776  -43.7084  -55.6698 C.ar      11 UNK        -0.0804 
     11 C11        31.2284  -44.5448  -56.0589 C.ar      11 UNK        -0.0871 
     12 C12        30.0808  -44.6247  -55.2657 C.ar      11 UNK        -0.1008 
     13 C13        29.9577  -43.8549  -54.1020 C.ar      11 UNK        -0.0735 
     14 C14        31.0230  -43.0310  -53.7222 C.ar      11 UNK        -0.0945 
     15 C15        28.7170  -43.9080  -53.2085 C.3       11 UNK         0.0169 
     16 S16        27.1825  -44.4910  -54.0078 S.3       11 UNK        -0.2669 
     17 C17        26.6997  -43.0636  -55.0429 C.3       11 UNK        -0.0850 
     18 CA         26.2941  -43.4337  -56.4986 C.3       10 UNK         0.0855 
     19 C          27.5128  -43.5408  -57.4603 C.2       10 UNK         0.5543 
     20 N          27.7517  -44.6757  -58.1070 N.am      10 UNK        -0.7343 
     21 O          28.2333  -42.5641  -57.6471 O.2       10 UNK        -0.5027 
     22 N          25.3842  -44.5907  -56.5401 N.am      10 UNK        -0.4495 
     23 C          24.4279  -44.7886  -57.4534 C.2       10 UNK         0.4903 
     24 O          24.1342  -43.9794  -58.3349 O.2       10 UNK        -0.4860 
     25 CA         23.7050  -46.1411  -57.3603 C.3       9 UNK         0.0227 
     26 CB         22.2845  -46.1166  -57.9652 C.3       9 UNK        -0.1964 
     27 N          24.5301  -47.2126  -57.9310 N.am      9 UNK        -0.4231 
     28 C          24.8698  -47.4050  -59.2183 C.2       9 UNK         0.5014 
     29 O          24.4700  -46.7019  -60.1466 O.2       9 UNK        -0.5270 
     30 CA         25.8256  -48.5716  -59.5507 C.3       8 UNK         0.0284 
     31 CB         27.0878  -48.0578  -60.2666 C.3       8 UNK        -0.1977 
     32 N          26.2282  -49.3536  -58.3788 N.am      8 UNK        -0.4342 
     33 C          25.4770  -50.3012  -57.7962 C.2       8 UNK         0.5039 
     34 O          24.3953  -50.6802  -58.2461 O.2       8 UNK        -0.5547 
     35 CA         25.9882  -50.9119  -56.4741 C.3       7 UNK         0.0281 
     36 CB         26.6016  -52.2988  -56.7266 C.3       7 UNK        -0.1963 
     37 N          26.9641  -50.0802  -55.7623 N.am      7 UNK        -0.4444 
     38 C          26.7530  -48.8324  -55.3203 C.2       7 UNK         0.5104 
     39 O          25.6673  -48.2554  -55.3947 O.2       7 UNK        -0.5100 
     40 CA         27.9758  -48.0665  -54.7841 C.3       6 UNK         0.0396 
     41 CB         27.9571  -48.0383  -53.2498 C.3       6 UNK        -0.1801 
     42 N          29.2808  -48.5407  -55.2847 N.am      6 UNK        -0.4747 
     43 C          29.6157  -48.5379  -56.5870 C.2       6 UNK         0.5012 
     44 O          28.8267  -48.1718  -57.4602 O.2       6 UNK        -0.5003 
     45 CA         30.9957  -49.0561  -57.0409 C.3       5 UNK         0.0782 
     46 C46        31.7040  -48.0745  -58.0202 C.3       11 UNK        -0.0868 
     47 S47        32.5463  -46.6873  -57.1833 S.3       11 UNK        -0.2515 
     48 C48        31.3271  -45.3501  -57.3444 C.3       11 UNK         0.0199 
     49 N          31.8921  -49.5203  -55.9706 N.am      5 UNK        -0.4607 
     50 C          32.8581  -50.4219  -56.2095 C.2       4 UNK         0.5031 
     51 O          32.8877  -51.1259  -57.2203 O.2       4 UNK        -0.5119 
     52 CA         34.0271  -50.5417  -55.2176 C.3       4 UNK         0.0263 
     53 CB         35.2361  -49.7456  -55.7372 C.3       4 UNK        -0.1967 
     54 N          33.7011  -50.0763  -53.8731 N.am      4 UNK        -0.4237 
     55 C          33.2021  -50.8615  -52.9081 C.2       3 UNK         0.4908 
     56 O          32.9766  -52.0637  -53.0542 O.2       3 UNK        -0.5102 
     57 CA         32.9006  -50.2112  -51.5439 C.3       3 UNK         0.0241 
     58 CB         34.0090  -50.5442  -50.5321 C.3       3 UNK        -0.1971 
     59 N          32.7144  -48.7581  -51.5924 N.am      3 UNK        -0.4139 
     60 C          31.7486  -48.1400  -52.2857 C.2       2 UNK         0.5016 
     61 O          30.9424  -48.7326  -53.0012 O.2       2 UNK        -0.5319 
     62 CA         31.7155  -46.6049  -52.2248 C.3       2 UNK         0.0286 
     63 CB         30.9257  -46.1362  -50.9926 C.3       2 UNK        -0.1963 
     64 N          33.0390  -45.9788  -52.2030 N.am      2 UNK        -0.4790 
     65 C          34.0160  -46.1701  -53.1022 C.2       1 UNK         0.5024 
     66 O          33.9357  -46.9537  -54.0482 O.2       1 UNK        -0.4888 
     67 H67        37.2296  -46.3947  -48.9105 H         1 UNK         0.0892 
     68 H68        36.3037  -44.8949  -48.9985 H         1 UNK         0.0892 
     69 H69        35.5161  -46.3886  -48.4850 H         1 UNK         0.0892 
     70 H70        35.7754  -44.3412  -51.1000 H         1 UNK         0.3107 
     71 H71        36.1147  -45.9944  -53.3348 H         1 UNK         0.0773 
     72 H72        35.0003  -44.1186  -54.6086 H         1 UNK         0.0680 
     73 H73        36.3445  -43.6369  -53.6246 H         1 UNK         0.0680 
     74 H74        32.9166  -41.0865  -53.7491 H         1 UNK         0.0650 
     75 H75        33.9782  -41.8163  -54.9238 H         1 UNK         0.0650 
     76 H76        33.1670  -43.6494  -56.2820 H         1 UNK         0.1397 
     77 H77        29.2811  -45.2822  -55.5711 H         1 UNK         0.1363 
     78 H78        30.9513  -42.4440  -52.8166 H         1 UNK         0.1355 
     79 H79        28.9275  -44.5759  -52.3743 H         1 UNK         0.0707 
     80 H80        28.5278  -42.9253  -52.7736 H         1 UNK         0.0707 
     81 H81        25.8504  -42.5875  -54.5509 H         1 UNK         0.1034 
     82 H82        27.4912  -42.3113  -55.0366 H         1 UNK         0.1034 
     83 H83        25.7347  -42.5749  -56.8751 H         1 UNK         0.0482 
     84 H84        27.1594  -45.4762  -57.9659 H         1 UNK         0.3460 
     85 H85        28.5229  -44.7193  -58.7521 H         1 UNK         0.3460 
     86 H86        25.5655  -45.3057  -55.8489 H         1 UNK         0.2989 
     87 H87        23.5944  -46.3767  -56.3004 H         1 UNK         0.0559 
     88 H88        22.2868  -45.8490  -59.0220 H         1 UNK         0.0848 
     89 H89        21.6608  -45.3838  -57.4521 H         1 UNK         0.0848 
     90 H90        21.7952  -47.0855  -57.8664 H         1 UNK         0.0848 
     91 H91        24.9399  -47.8326  -57.2392 H         1 UNK         0.3144 
     92 H92        25.2962  -49.2313  -60.2415 H         1 UNK         0.0727 
     93 H93        27.6281  -47.3290  -59.6623 H         1 UNK         0.0790 
     94 H94        26.8320  -47.5700  -61.2081 H         1 UNK         0.0790 
     95 H95        27.7728  -48.8725  -60.5018 H         1 UNK         0.0790 
     96 H96        27.1097  -49.0867  -57.9489 H         1 UNK         0.3215 
     97 H97        25.1219  -51.0318  -55.8200 H         1 UNK         0.0863 
     98 H98        26.8832  -52.7859  -55.7928 H         1 UNK         0.0808 
     99 H99        27.4892  -52.2392  -57.3578 H         1 UNK         0.0808 
    100 H100       25.8890  -52.9551  -57.2286 H         1 UNK         0.0808 
    101 H101       27.8932  -50.4601  -55.6532 H         1 UNK         0.3118 
    102 H102       27.8597  -47.0421  -55.1361 H         1 UNK         0.0546 
    103 H103       28.6766  -47.3164  -52.8678 H         1 UNK         0.0828 
    104 H104       28.1894  -49.0140  -52.8222 H         1 UNK         0.0828 
    105 H105       26.9788  -47.7368  -52.8724 H         1 UNK         0.0828 
    106 H106       29.9539  -48.8246  -54.5756 H         1 UNK         0.3005 
    107 H107       30.7231  -49.9338  -57.6320 H         1 UNK         0.1257 
    108 H108       32.4697  -48.6178  -58.5758 H         1 UNK         0.0775 
    109 H109       31.0228  -47.6974  -58.7854 H         1 UNK         0.0775 
    110 H110       31.6147  -44.6966  -58.1691 H         1 UNK         0.0840 
    111 H111       30.3515  -45.7607  -57.6055 H         1 UNK         0.0840 
    112 H112       31.9167  -48.9736  -55.1201 H         1 UNK         0.2987 
    113 H113       34.3163  -51.5942  -55.1774 H         1 UNK         0.0785 
    114 H114       35.0061  -48.6843  -55.8417 H         1 UNK         0.0798 
    115 H115       35.5489  -50.1068  -56.7179 H         1 UNK         0.0798 
    116 H116       36.0923  -49.8401  -55.0692 H         1 UNK         0.0798 
    117 H117       33.8347  -49.0880  -53.6888 H         1 UNK         0.3079 
    118 H118       31.9664  -50.6464  -51.1829 H         1 UNK         0.0794 
    119 H119       34.9695  -50.1260  -50.8362 H         1 UNK         0.0786 
    120 H120       34.1394  -51.6230  -50.4354 H         1 UNK         0.0786 
    121 H121       33.7729  -50.1575  -49.5406 H         1 UNK         0.0786 
    122 H122       33.3869  -48.1932  -51.0908 H         1 UNK         0.3032 
    123 H123       31.2058  -46.2576  -53.1255 H         1 UNK         0.1094 
    124 H124       30.8282  -45.0507  -50.9733 H         1 UNK         0.0794 
    125 H125       29.9183  -46.5533  -50.9862 H         1 UNK         0.0794 
    126 H126       31.4083  -46.4430  -50.0638 H         1 UNK         0.0794 
    127 H127       33.2117  -45.3106  -51.4662 H         1 UNK         0.3016 
@<TRIPOS>BOND
     1    1    2 1    
     2    1   67 1    
     3    1   68 1    
     4    1   69 1    
     5    2    3 2    
     6    2    4 am   BACKBONE|DICT|INTERRES
     7    4    5 1    
     8    4   70 1    
     9    5    6 1    
    10    5   65 1    
    11    5   71 1    
    12    6    7 1    
    13    6   72 1    
    14    6   73 1    
    15    7    8 1    
    16    8    9 1    
    17    8   74 1    
    18    8   75 1    
    19    9   10 ar   
    20    9   14 ar   
    21   10   11 ar   
    22   10   76 1    
    23   11   12 ar   
    24   11   48 1    
    25   12   13 ar   
    26   12   77 1    
    27   13   14 ar   
    28   13   15 1    
    29   14   78 1    
    30   15   16 1    
    31   15   79 1    
    32   15   80 1    
    33   16   17 1    
    34   17   18 1    
    35   17   81 1    
    36   17   82 1    
    37   18   19 1    
    38   18   22 1    
    39   18   83 1    
    40   19   20 am   BACKBONE|DICT|INTERRES
    41   19   21 2    
    42   20   84 1    
    43   20   85 1    
    44   22   23 am   BACKBONE|DICT|INTERRES
    45   22   86 1    
    46   23   24 2    
    47   23   25 1    
    48   25   26 1    
    49   25   27 1    
    50   25   87 1    
    51   26   88 1    
    52   26   89 1    
    53   26   90 1    
    54   27   28 am   BACKBONE|DICT|INTERRES
    55   27   91 1    
    56   28   29 2    
    57   28   30 1    
    58   30   31 1    
    59   30   32 1    
    60   30   92 1    
    61   31   93 1    
    62   31   94 1    
    63   31   95 1    
    64   32   33 am   BACKBONE|DICT|INTERRES
    65   32   96 1    
    66   33   34 2    
    67   33   35 1    
    68   35   36 1    
    69   35   37 1    
    70   35   97 1    
    71   36   98 1    
    72   36   99 1    
    73   36  100 1    
    74   37   38 am   BACKBONE|DICT|INTERRES
    75   37  101 1    
    76   38   39 2    
    77   38   40 1    
    78   40   41 1    
    79   40   42 1    
    80   40  102 1    
    81   41  103 1    
    82   41  104 1    
    83   41  105 1    
    84   42   43 am   BACKBONE|DICT|INTERRES
    85   42  106 1    
    86   43   44 2    
    87   43   45 1    
    88   45   46 1    
    89   45   49 1    
    90   45  107 1    
    91   46   47 1    
    92   46  108 1    
    93   46  109 1    
    94   47   48 1    
    95   48  110 1    
    96   48  111 1    
    97   49   50 am   BACKBONE|DICT|INTERRES
    98   49  112 1    
    99   50   51 2    
   100   50   52 1    
   101   52   53 1    
   102   52   54 1    
   103   52  113 1    
   104   53  114 1    
   105   53  115 1    
   106   53  116 1    
   107   54   55 am   BACKBONE|DICT|INTERRES
   108   54  117 1    
   109   55   56 2    
   110   55   57 1    
   111   57   58 1    
   112   57   59 1    
   113   57  118 1    
   114   58  119 1    
   115   58  120 1    
   116   58  121 1    
   117   59   60 am   BACKBONE|DICT|INTERRES
   118   59  122 1    
   119   60   61 2    
   120   60   62 1    
   121   62   63 1    
   122   62   64 1    
   123   62  123 1    
   124   63  124 1    
   125   63  125 1    
   126   63  126 1    
   127   64   65 am   BACKBONE|DICT|INTERRES
   128   64  127 1    
   129   65   66 2    
@<TRIPOS>SUBSTRUCTURE
     1 UNK         1 GROUP             0       ****    0 ROOT    
