@<TRIPOS>MOLECULE
3R134
127   129    1
SMALL
USER_CHARGES


@<TRIPOS>ATOM
      1 CA         36.9503  -44.9938  -51.8018 C.3       0 UNK        -0.1968 
      2 C          35.5743  -45.5626  -52.1145 C.2       0 UNK         0.4852 
      3 O          35.3835  -46.1467  -53.1804 O.2       0 UNK        -0.5359 
      4 N          34.6175  -45.4010  -51.1906 N.am      1 UNK        -0.4300 
      5 CA         33.2286  -45.8626  -51.3293 C.3       1 UNK         0.0863 
      6 C6         32.2424  -45.0279  -50.4731 C.3       11 UNK        -0.0953 
      7 S7         32.3896  -43.2286  -50.7573 S.3       11 UNK        -0.2369 
      8 C8         30.8239  -42.8219  -51.6091 C.3       11 UNK         0.0226 
      9 C9         30.7552  -43.1235  -53.1095 C.ar      11 UNK        -0.0699 
     10 C10        31.8442  -43.6054  -53.8516 C.ar      11 UNK        -0.0804 
     11 C11        31.7202  -43.8644  -55.2198 C.ar      11 UNK        -0.0871 
     12 C12        30.5059  -43.6046  -55.8539 C.ar      11 UNK        -0.1008 
     13 C13        29.4150  -43.0973  -55.1433 C.ar      11 UNK        -0.0735 
     14 C14        29.5461  -42.8744  -53.7699 C.ar      11 UNK        -0.0945 
     15 C15        28.0878  -42.8199  -55.8449 C.3       11 UNK         0.0169 
     16 S16        28.3039  -42.0857  -57.5051 S.3       11 UNK        -0.2669 
     17 C17        26.6218  -42.1792  -58.2117 C.3       11 UNK        -0.0850 
     18 CA         26.2859  -43.5147  -58.9349 C.3       10 UNK         0.0855 
     19 C          27.2232  -43.8723  -60.1246 C.2       10 UNK         0.5543 
     20 N          27.5880  -45.1348  -60.3212 N.am      10 UNK        -0.7343 
     21 O          27.5995  -42.9987  -60.9026 O.2       10 UNK        -0.5027 
     22 N          26.1379  -44.6119  -57.9740 N.am      10 UNK        -0.4495 
     23 C          24.9809  -45.1137  -57.5385 C.2       10 UNK         0.4903 
     24 O          23.8682  -44.7354  -57.9104 O.2       10 UNK        -0.4860 
     25 CA         25.1007  -46.2304  -56.4912 C.3       9 UNK         0.0227 
     26 CB         24.0094  -46.1026  -55.4131 C.3       9 UNK        -0.1964 
     27 N          25.0712  -47.5907  -57.0350 N.am      9 UNK        -0.4231 
     28 C          25.7190  -48.0868  -58.1010 C.2       9 UNK         0.5014 
     29 O          26.3526  -47.4234  -58.9240 O.2       9 UNK        -0.5270 
     30 CA         25.7225  -49.6212  -58.1919 C.3       8 UNK         0.0284 
     31 CB         26.3409  -50.1438  -59.5022 C.3       8 UNK        -0.1977 
     32 N          26.4990  -50.1260  -57.0612 N.am      8 UNK        -0.4342 
     33 C          26.0029  -50.3976  -55.8473 C.2       8 UNK         0.5039 
     34 O          24.7982  -50.4234  -55.5920 O.2       8 UNK        -0.5547 
     35 CA         27.0266  -50.5742  -54.7162 C.3       7 UNK         0.0281 
     36 CB         27.8150  -51.8847  -54.8731 C.3       7 UNK        -0.1963 
     37 N          27.9427  -49.4300  -54.6612 N.am      7 UNK        -0.4444 
     38 C          27.6046  -48.2106  -54.2122 C.2       7 UNK         0.5104 
     39 O          26.5088  -47.9472  -53.7184 O.2       7 UNK        -0.5100 
     40 CA         28.6545  -47.0923  -54.3212 C.3       6 UNK         0.0396 
     41 CB         29.3938  -46.9279  -52.9885 C.3       6 UNK        -0.1801 
     42 N          29.6302  -47.3583  -55.3771 N.am      6 UNK        -0.4747 
     43 C          29.5223  -46.9126  -56.6374 C.2       6 UNK         0.5012 
     44 O          28.6101  -46.1837  -57.0329 O.2       6 UNK        -0.5003 
     45 CA         30.6095  -47.3743  -57.6342 C.3       5 UNK         0.0782 
     46 C46        31.7528  -46.3362  -57.7767 C.3       11 UNK        -0.0868 
     47 S47        32.8226  -46.1890  -56.2947 S.3       11 UNK        -0.2515 
     48 C48        32.9046  -44.3883  -56.0219 C.3       11 UNK         0.0199 
     49 N          31.1472  -48.7088  -57.3451 N.am      5 UNK        -0.4607 
     50 C          30.4483  -49.8498  -57.3121 C.2       4 UNK         0.5031 
     51 O          29.2430  -49.9201  -57.5437 O.2       4 UNK        -0.5119 
     52 CA         31.2042  -51.1316  -56.9198 C.3       4 UNK         0.0263 
     53 CB         31.5865  -51.9257  -58.1786 C.3       4 UNK        -0.1967 
     54 N          32.3997  -50.9233  -56.0951 N.am      4 UNK        -0.4237 
     55 C          32.4322  -50.3249  -54.8961 C.2       3 UNK         0.4908 
     56 O          31.4545  -49.7927  -54.3607 O.2       3 UNK        -0.5102 
     57 CA         33.8008  -50.3051  -54.2055 C.3       3 UNK         0.0241 
     58 CB         34.7627  -49.3260  -54.9068 C.3       3 UNK        -0.1971 
     59 N          33.6384  -49.9171  -52.8091 N.am      3 UNK        -0.4139 
     60 C          34.5073  -50.1555  -51.8208 C.2       2 UNK         0.5016 
     61 O          35.5428  -50.8088  -51.9663 O.2       2 UNK        -0.5319 
     62 CA         34.1848  -49.5113  -50.4564 C.3       2 UNK         0.0286 
     63 CB         35.2128  -49.8712  -49.3671 C.3       2 UNK        -0.1963 
     64 N          34.1217  -48.0523  -50.5833 N.am      2 UNK        -0.4790 
     65 C          33.0661  -47.3722  -51.0523 C.2       1 UNK         0.5024 
     66 O          31.9903  -47.9147  -51.2981 O.2       1 UNK        -0.4888 
     67 H67        36.9874  -44.5325  -50.8143 H         1 UNK         0.0892 
     68 H68        37.7001  -45.7845  -51.8354 H         1 UNK         0.0892 
     69 H69        37.2183  -44.2379  -52.5400 H         1 UNK         0.0892 
     70 H70        34.8252  -44.8985  -50.3387 H         1 UNK         0.3107 
     71 H71        32.9377  -45.7437  -52.3737 H         1 UNK         0.0773 
     72 H72        31.2141  -45.3374  -50.6689 H         1 UNK         0.0680 
     73 H73        32.4148  -45.2096  -49.4106 H         1 UNK         0.0680 
     74 H74        30.6512  -41.7536  -51.4766 H         1 UNK         0.0650 
     75 H75        30.0025  -43.3263  -51.0995 H         1 UNK         0.0650 
     76 H76        32.7999  -43.7731  -53.3794 H         1 UNK         0.1397 
     77 H77        30.4052  -43.7909  -56.9116 H         1 UNK         0.1363 
     78 H78        28.7024  -42.4945  -53.2097 H         1 UNK         0.1355 
     79 H79        27.5487  -43.7628  -55.9178 H         1 UNK         0.0707 
     80 H80        27.4693  -42.1496  -55.2464 H         1 UNK         0.0707 
     81 H81        25.8908  -41.9846  -57.4254 H         1 UNK         0.1034 
     82 H82        26.5147  -41.3510  -58.9142 H         1 UNK         0.1034 
     83 H83        25.3218  -43.3603  -59.4223 H         1 UNK         0.0482 
     84 H84        27.2209  -45.8777  -59.7311 H         1 UNK         0.3460 
     85 H85        28.1828  -45.3608  -61.1014 H         1 UNK         0.3460 
     86 H86        27.0051  -45.0535  -57.6795 H         1 UNK         0.2989 
     87 H87        26.0633  -46.1142  -55.9910 H         1 UNK         0.0559 
     88 H88        23.0144  -46.2844  -55.8213 H         1 UNK         0.0848 
     89 H89        24.0057  -45.1025  -54.9775 H         1 UNK         0.0848 
     90 H90        24.1701  -46.8071  -54.5969 H         1 UNK         0.0848 
     91 H91        24.6150  -48.2747  -56.4444 H         1 UNK         0.3144 
     92 H92        24.6904  -49.9741  -58.1368 H         1 UNK         0.0727 
     93 H93        26.3226  -51.2329  -59.5407 H         1 UNK         0.0790 
     94 H94        27.3773  -49.8234  -59.6177 H         1 UNK         0.0790 
     95 H95        25.7869  -49.7773  -60.3672 H         1 UNK         0.0790 
     96 H96        27.5124  -50.0742  -57.1742 H         1 UNK         0.3215 
     97 H97        26.4828  -50.6202  -53.7698 H         1 UNK         0.0863 
     98 H98        28.5894  -51.9796  -54.1115 H         1 UNK         0.0808 
     99 H99        28.2893  -51.9628  -55.8506 H         1 UNK         0.0808 
    100 H100       27.1523  -52.7449  -54.7709 H         1 UNK         0.0808 
    101 H101       28.8654  -49.5548  -55.0521 H         1 UNK         0.3118 
    102 H102       28.1331  -46.1558  -54.5299 H         1 UNK         0.0546 
    103 H103       28.7083  -46.6310  -52.1940 H         1 UNK         0.0828 
    104 H104       30.1698  -46.1647  -53.0528 H         1 UNK         0.0828 
    105 H105       29.8619  -47.8635  -52.6836 H         1 UNK         0.0828 
    106 H106       30.4196  -47.9460  -55.1347 H         1 UNK         0.3005 
    107 H107       30.1065  -47.4460  -58.6016 H         1 UNK         0.1257 
    108 H108       31.3527  -45.3648  -58.0638 H         1 UNK         0.0775 
    109 H109       32.3956  -46.6271  -58.6089 H         1 UNK         0.0775 
    110 H110       33.8344  -44.1671  -55.4953 H         1 UNK         0.0840 
    111 H111       32.9732  -43.8689  -56.9789 H         1 UNK         0.0840 
    112 H112       32.1293  -48.7423  -57.1150 H         1 UNK         0.2987 
    113 H113       30.5197  -51.7429  -56.3311 H         1 UNK         0.0785 
    114 H114       30.7098  -52.1223  -58.7978 H         1 UNK         0.0798 
    115 H115       32.0212  -52.8924  -57.9234 H         1 UNK         0.0798 
    116 H116       32.3054  -51.3843  -58.7950 H         1 UNK         0.0798 
    117 H117       33.2583  -51.3152  -56.4554 H         1 UNK         0.3079 
    118 H118       34.2120  -51.3160  -54.2463 H         1 UNK         0.0794 
    119 H119       34.4056  -48.2980  -54.8364 H         1 UNK         0.0786 
    120 H120       34.8803  -49.5619  -55.9648 H         1 UNK         0.0786 
    121 H121       35.7566  -49.3576  -54.4602 H         1 UNK         0.0786 
    122 H122       32.7889  -49.3964  -52.6082 H         1 UNK         0.3032 
    123 H123       33.2124  -49.8935  -50.1368 H         1 UNK         0.1094 
    124 H124       36.2135  -49.5199  -49.6217 H         1 UNK         0.0794 
    125 H125       34.9394  -49.4371  -48.4053 H         1 UNK         0.0794 
    126 H126       35.2714  -50.9515  -49.2281 H         1 UNK         0.0794 
    127 H127       34.9837  -47.5470  -50.4391 H         1 UNK         0.3016 
@<TRIPOS>BOND
     1    1    2 1    
     2    1   67 1    
     3    1   68 1    
     4    1   69 1    
     5    2    3 2    
     6    2    4 am   BACKBONE|DICT|INTERRES
     7    4    5 1    
     8    4   70 1    
     9    5    6 1    
    10    5   65 1    
    11    5   71 1    
    12    6    7 1    
    13    6   72 1    
    14    6   73 1    
    15    7    8 1    
    16    8    9 1    
    17    8   74 1    
    18    8   75 1    
    19    9   10 ar   
    20    9   14 ar   
    21   10   11 ar   
    22   10   76 1    
    23   11   12 ar   
    24   11   48 1    
    25   12   13 ar   
    26   12   77 1    
    27   13   14 ar   
    28   13   15 1    
    29   14   78 1    
    30   15   16 1    
    31   15   79 1    
    32   15   80 1    
    33   16   17 1    
    34   17   18 1    
    35   17   81 1    
    36   17   82 1    
    37   18   19 1    
    38   18   22 1    
    39   18   83 1    
    40   19   20 am   BACKBONE|DICT|INTERRES
    41   19   21 2    
    42   20   84 1    
    43   20   85 1    
    44   22   23 am   BACKBONE|DICT|INTERRES
    45   22   86 1    
    46   23   24 2    
    47   23   25 1    
    48   25   26 1    
    49   25   27 1    
    50   25   87 1    
    51   26   88 1    
    52   26   89 1    
    53   26   90 1    
    54   27   28 am   BACKBONE|DICT|INTERRES
    55   27   91 1    
    56   28   29 2    
    57   28   30 1    
    58   30   31 1    
    59   30   32 1    
    60   30   92 1    
    61   31   93 1    
    62   31   94 1    
    63   31   95 1    
    64   32   33 am   BACKBONE|DICT|INTERRES
    65   32   96 1    
    66   33   34 2    
    67   33   35 1    
    68   35   36 1    
    69   35   37 1    
    70   35   97 1    
    71   36   98 1    
    72   36   99 1    
    73   36  100 1    
    74   37   38 am   BACKBONE|DICT|INTERRES
    75   37  101 1    
    76   38   39 2    
    77   38   40 1    
    78   40   41 1    
    79   40   42 1    
    80   40  102 1    
    81   41  103 1    
    82   41  104 1    
    83   41  105 1    
    84   42   43 am   BACKBONE|DICT|INTERRES
    85   42  106 1    
    86   43   44 2    
    87   43   45 1    
    88   45   46 1    
    89   45   49 1    
    90   45  107 1    
    91   46   47 1    
    92   46  108 1    
    93   46  109 1    
    94   47   48 1    
    95   48  110 1    
    96   48  111 1    
    97   49   50 am   BACKBONE|DICT|INTERRES
    98   49  112 1    
    99   50   51 2    
   100   50   52 1    
   101   52   53 1    
   102   52   54 1    
   103   52  113 1    
   104   53  114 1    
   105   53  115 1    
   106   53  116 1    
   107   54   55 am   BACKBONE|DICT|INTERRES
   108   54  117 1    
   109   55   56 2    
   110   55   57 1    
   111   57   58 1    
   112   57   59 1    
   113   57  118 1    
   114   58  119 1    
   115   58  120 1    
   116   58  121 1    
   117   59   60 am   BACKBONE|DICT|INTERRES
   118   59  122 1    
   119   60   61 2    
   120   60   62 1    
   121   62   63 1    
   122   62   64 1    
   123   62  123 1    
   124   63  124 1    
   125   63  125 1    
   126   63  126 1    
   127   64   65 am   BACKBONE|DICT|INTERRES
   128   64  127 1    
   129   65   66 2    
@<TRIPOS>SUBSTRUCTURE
     1 UNK         1 GROUP             0       ****    0 ROOT    
