@<TRIPOS>MOLECULE
3R134
127   129    1
SMALL
USER_CHARGES


@<TRIPOS>ATOM
      1 CA         32.3614  -46.7947  -51.4381 C.3       0 UNK        -0.1968 
      2 C          33.6310  -46.0355  -51.7858 C.2       0 UNK         0.4852 
      3 O          34.7191  -46.4458  -51.3785 O.2       0 UNK        -0.5359 
      4 N          33.5003  -44.9218  -52.5177 N.am      1 UNK        -0.4300 
      5 CA         34.6080  -44.0168  -52.8525 C.3       1 UNK         0.0863 
      6 C6         34.1296  -42.5728  -53.1441 C.3       11 UNK        -0.0953 
      7 S7         33.0960  -41.8852  -51.8043 S.3       11 UNK        -0.2369 
      8 C8         31.5055  -41.6172  -52.6490 C.3       11 UNK         0.0226 
      9 C9         30.7895  -42.9209  -52.9770 C.ar      11 UNK        -0.0699 
     10 C10        29.9380  -43.5133  -52.0386 C.ar      11 UNK        -0.0804 
     11 C11        29.2236  -44.6711  -52.3619 C.ar      11 UNK        -0.0871 
     12 C12        29.3974  -45.2494  -53.6221 C.ar      11 UNK        -0.1008 
     13 C13        30.2610  -44.6882  -54.5645 C.ar      11 UNK        -0.0735 
     14 C14        30.9411  -43.5084  -54.2372 C.ar      11 UNK        -0.0945 
     15 C15        30.3649  -45.3693  -55.9299 C.3       11 UNK         0.0169 
     16 S16        31.6853  -44.7538  -57.0276 S.3       11 UNK        -0.2669 
     17 C17        31.2055  -45.4806  -58.6334 C.3       11 UNK        -0.0850 
     18 CA         30.3806  -44.4932  -59.5126 C.3       10 UNK         0.0855 
     19 C          30.4062  -44.8516  -61.0326 C.2       10 UNK         0.5543 
     20 N          29.3772  -44.5200  -61.8030 N.am      10 UNK        -0.7343 
     21 O          31.3839  -45.4022  -61.5333 O.2       10 UNK        -0.5027 
     22 N          29.0359  -44.2347  -58.9575 N.am      10 UNK        -0.4495 
     23 C          28.0282  -45.1170  -58.8789 C.2       10 UNK         0.4903 
     24 O          28.0827  -46.2701  -59.3101 O.2       10 UNK        -0.4860 
     25 CA         26.7309  -44.5916  -58.2361 C.3       9 UNK         0.0227 
     26 CB         25.9486  -43.7245  -59.2376 C.3       9 UNK        -0.1964 
     27 N          25.8515  -45.6621  -57.7558 N.am      9 UNK        -0.4231 
     28 C          26.0953  -46.4595  -56.7068 C.2       9 UNK         0.5014 
     29 O          27.0957  -46.3708  -55.9941 O.2       9 UNK        -0.5270 
     30 CA         25.0276  -47.5080  -56.3413 C.3       8 UNK         0.0284 
     31 CB         23.7356  -47.4571  -57.1917 C.3       8 UNK        -0.1977 
     32 N          25.6078  -48.8532  -56.3046 N.am      8 UNK        -0.4342 
     33 C          26.0772  -49.5703  -57.3387 C.2       8 UNK         0.5039 
     34 O          25.9817  -49.2167  -58.5145 O.2       8 UNK        -0.5547 
     35 CA         26.7758  -50.9109  -57.0306 C.3       7 UNK         0.0281 
     36 CB         28.2044  -50.9242  -57.6050 C.3       7 UNK        -0.1963 
     37 N          26.8358  -51.2100  -55.5969 N.am      7 UNK        -0.4444 
     38 C          25.8693  -51.8321  -54.9037 C.2       7 UNK         0.5104 
     39 O          24.8480  -52.2864  -55.4195 O.2       7 UNK        -0.5100 
     40 CA         26.0475  -51.9496  -53.3746 C.3       6 UNK         0.0396 
     41 CB         26.5830  -53.3420  -53.0052 C.3       6 UNK        -0.1801 
     42 N          26.9292  -50.9297  -52.7981 N.am      6 UNK        -0.4747 
     43 C          26.7126  -49.6061  -52.8359 C.2       6 UNK         0.5012 
     44 O          25.6753  -49.1040  -53.2690 O.2       6 UNK        -0.5003 
     45 CA         27.8723  -48.6835  -52.4038 C.3       5 UNK         0.0782 
     46 C46        27.5873  -48.0107  -51.0399 C.3       11 UNK        -0.0868 
     47 S47        28.8612  -46.7805  -50.5884 S.3       11 UNK        -0.2515 
     48 C48        28.2243  -45.2668  -51.3779 C.3       11 UNK         0.0199 
     49 N          29.1940  -49.3292  -52.4453 N.am      5 UNK        -0.4607 
     50 C          29.7795  -49.7910  -53.5567 C.2       4 UNK         0.5031 
     51 O          29.2274  -49.8097  -54.6579 O.2       4 UNK        -0.5119 
     52 CA         31.1831  -50.3967  -53.4013 C.3       4 UNK         0.0263 
     53 CB         31.0814  -51.9071  -53.1332 C.3       4 UNK        -0.1967 
     54 N          31.9904  -50.1747  -54.6025 N.am      4 UNK        -0.4237 
     55 C          32.4274  -48.9730  -54.9975 C.2       3 UNK         0.4908 
     56 O          32.2817  -47.9388  -54.3417 O.2       3 UNK        -0.5102 
     57 CA         33.1109  -48.9105  -56.3711 C.3       3 UNK         0.0241 
     58 CB         32.0577  -48.9415  -57.4910 C.3       3 UNK        -0.1971 
     59 N          33.8853  -47.6721  -56.4636 N.am      3 UNK        -0.4139 
     60 C          35.1563  -47.5585  -56.0586 C.2       2 UNK         0.5016 
     61 O          35.8749  -48.5121  -55.7556 O.2       2 UNK        -0.5319 
     62 CA         35.6921  -46.1347  -55.9011 C.3       2 UNK         0.0286 
     63 CB         35.6064  -45.3138  -57.2023 C.3       2 UNK        -0.1963 
     64 N          34.9670  -45.4782  -54.8134 N.am      2 UNK        -0.4790 
     65 C          35.4854  -44.5403  -54.0099 C.2       1 UNK         0.5024 
     66 O          36.6205  -44.0819  -54.1508 O.2       1 UNK        -0.4888 
     67 H67        31.5439  -46.5353  -52.1100 H         1 UNK         0.0892 
     68 H68        32.0532  -46.5696  -50.4178 H         1 UNK         0.0892 
     69 H69        32.5304  -47.8675  -51.5176 H         1 UNK         0.0892 
     70 H70        32.5802  -44.6197  -52.8114 H         1 UNK         0.3107 
     71 H71        35.2608  -43.9626  -51.9782 H         1 UNK         0.0773 
     72 H72        33.5974  -42.5223  -54.0936 H         1 UNK         0.0680 
     73 H73        34.9909  -41.9115  -53.2568 H         1 UNK         0.0680 
     74 H74        31.6691  -41.0310  -53.5547 H         1 UNK         0.0650 
     75 H75        30.8709  -41.0048  -52.0067 H         1 UNK         0.0650 
     76 H76        29.8084  -43.0528  -51.0685 H         1 UNK         0.1397 
     77 H77        28.8409  -46.1331  -53.8913 H         1 UNK         0.1363 
     78 H78        31.5761  -43.0270  -54.9657 H         1 UNK         0.1355 
     79 H79        30.4984  -46.4426  -55.7897 H         1 UNK         0.0707 
     80 H80        29.4073  -45.2403  -56.4275 H         1 UNK         0.0707 
     81 H81        32.1359  -45.7627  -59.1290 H         1 UNK         0.1034 
     82 H82        30.6550  -46.4090  -58.4856 H         1 UNK         0.1034 
     83 H83        30.8929  -43.5312  -59.4737 H         1 UNK         0.0482 
     84 H84        28.5725  -44.0608  -61.4086 H         1 UNK         0.3460 
     85 H85        29.4033  -44.7422  -62.7856 H         1 UNK         0.3460 
     86 H86        28.8911  -43.3011  -58.6007 H         1 UNK         0.2989 
     87 H87        27.0033  -43.9739  -57.3775 H         1 UNK         0.0559 
     88 H88        25.6518  -44.2946  -60.1191 H         1 UNK         0.0848 
     89 H89        26.5469  -42.8804  -59.5830 H         1 UNK         0.0848 
     90 H90        25.0465  -43.3111  -58.7860 H         1 UNK         0.0848 
     91 H91        25.0242  -45.8463  -58.3034 H         1 UNK         0.3144 
     92 H92        24.7391  -47.2853  -55.3129 H         1 UNK         0.0727 
     93 H93        23.2453  -46.4867  -57.1034 H         1 UNK         0.0790 
     94 H94        23.0185  -48.2049  -56.8527 H         1 UNK         0.0790 
     95 H95        23.9214  -47.6394  -58.2504 H         1 UNK         0.0790 
     96 H96        25.7536  -49.2186  -55.3705 H         1 UNK         0.3215 
     97 H97        26.2057  -51.6942  -57.5348 H         1 UNK         0.0863 
     98 H98        28.8006  -50.0938  -57.2252 H         1 UNK         0.0808 
     99 H99        28.1876  -50.8356  -58.6920 H         1 UNK         0.0808 
    100 H100       28.7247  -51.8512  -57.3640 H         1 UNK         0.0808 
    101 H101       27.6449  -50.8388  -55.1041 H         1 UNK         0.3118 
    102 H102       25.0616  -51.8298  -52.9207 H         1 UNK         0.0546 
    103 H103       27.5798  -53.5133  -53.4137 H         1 UNK         0.0828 
    104 H104       25.9325  -54.1262  -53.3954 H         1 UNK         0.0828 
    105 H105       26.6337  -53.4755  -51.9245 H         1 UNK         0.0828 
    106 H106       27.8123  -51.2505  -52.4283 H         1 UNK         0.3005 
    107 H107       27.8841  -47.9005  -53.1611 H         1 UNK         0.1257 
    108 H108       27.5512  -48.7628  -50.2497 H         1 UNK         0.0775 
    109 H109       26.6082  -47.5274  -51.0365 H         1 UNK         0.0775 
    110 H110       27.2896  -45.4692  -51.9026 H         1 UNK         0.0840 
    111 H111       27.9783  -44.5446  -50.5980 H         1 UNK         0.0840 
    112 H112       29.7004  -49.3513  -51.5718 H         1 UNK         0.2987 
    113 H113       31.6850  -49.9206  -52.5567 H         1 UNK         0.0785 
    114 H114       30.5177  -52.1070  -52.2210 H         1 UNK         0.0798 
    115 H115       32.0673  -52.3548  -53.0056 H         1 UNK         0.0798 
    116 H116       30.5783  -52.4296  -53.9483 H         1 UNK         0.0798 
    117 H117       32.1116  -50.9654  -55.2180 H         1 UNK         0.3079 
    118 H118       33.7723  -49.7723  -56.4845 H         1 UNK         0.0794 
    119 H119       31.5959  -49.9270  -57.5622 H         1 UNK         0.0786 
    120 H120       32.4957  -48.7179  -58.4640 H         1 UNK         0.0786 
    121 H121       31.2544  -48.2297  -57.3058 H         1 UNK         0.0786 
    122 H122       33.3559  -46.8285  -56.6348 H         1 UNK         0.3032 
    123 H123       36.7459  -46.2244  -55.6256 H         1 UNK         0.1094 
    124 H124       34.5776  -45.1245  -57.5058 H         1 UNK         0.0794 
    125 H125       36.0996  -44.3482  -57.0901 H         1 UNK         0.0794 
    126 H126       36.1001  -45.8341  -58.0242 H         1 UNK         0.0794 
    127 H127       34.0516  -45.8498  -54.5912 H         1 UNK         0.3016 
@<TRIPOS>BOND
     1    1    2 1    
     2    1   67 1    
     3    1   68 1    
     4    1   69 1    
     5    2    3 2    
     6    2    4 am   BACKBONE|DICT|INTERRES
     7    4    5 1    
     8    4   70 1    
     9    5    6 1    
    10    5   65 1    
    11    5   71 1    
    12    6    7 1    
    13    6   72 1    
    14    6   73 1    
    15    7    8 1    
    16    8    9 1    
    17    8   74 1    
    18    8   75 1    
    19    9   10 ar   
    20    9   14 ar   
    21   10   11 ar   
    22   10   76 1    
    23   11   12 ar   
    24   11   48 1    
    25   12   13 ar   
    26   12   77 1    
    27   13   14 ar   
    28   13   15 1    
    29   14   78 1    
    30   15   16 1    
    31   15   79 1    
    32   15   80 1    
    33   16   17 1    
    34   17   18 1    
    35   17   81 1    
    36   17   82 1    
    37   18   19 1    
    38   18   22 1    
    39   18   83 1    
    40   19   20 am   BACKBONE|DICT|INTERRES
    41   19   21 2    
    42   20   84 1    
    43   20   85 1    
    44   22   23 am   BACKBONE|DICT|INTERRES
    45   22   86 1    
    46   23   24 2    
    47   23   25 1    
    48   25   26 1    
    49   25   27 1    
    50   25   87 1    
    51   26   88 1    
    52   26   89 1    
    53   26   90 1    
    54   27   28 am   BACKBONE|DICT|INTERRES
    55   27   91 1    
    56   28   29 2    
    57   28   30 1    
    58   30   31 1    
    59   30   32 1    
    60   30   92 1    
    61   31   93 1    
    62   31   94 1    
    63   31   95 1    
    64   32   33 am   BACKBONE|DICT|INTERRES
    65   32   96 1    
    66   33   34 2    
    67   33   35 1    
    68   35   36 1    
    69   35   37 1    
    70   35   97 1    
    71   36   98 1    
    72   36   99 1    
    73   36  100 1    
    74   37   38 am   BACKBONE|DICT|INTERRES
    75   37  101 1    
    76   38   39 2    
    77   38   40 1    
    78   40   41 1    
    79   40   42 1    
    80   40  102 1    
    81   41  103 1    
    82   41  104 1    
    83   41  105 1    
    84   42   43 am   BACKBONE|DICT|INTERRES
    85   42  106 1    
    86   43   44 2    
    87   43   45 1    
    88   45   46 1    
    89   45   49 1    
    90   45  107 1    
    91   46   47 1    
    92   46  108 1    
    93   46  109 1    
    94   47   48 1    
    95   48  110 1    
    96   48  111 1    
    97   49   50 am   BACKBONE|DICT|INTERRES
    98   49  112 1    
    99   50   51 2    
   100   50   52 1    
   101   52   53 1    
   102   52   54 1    
   103   52  113 1    
   104   53  114 1    
   105   53  115 1    
   106   53  116 1    
   107   54   55 am   BACKBONE|DICT|INTERRES
   108   54  117 1    
   109   55   56 2    
   110   55   57 1    
   111   57   58 1    
   112   57   59 1    
   113   57  118 1    
   114   58  119 1    
   115   58  120 1    
   116   58  121 1    
   117   59   60 am   BACKBONE|DICT|INTERRES
   118   59  122 1    
   119   60   61 2    
   120   60   62 1    
   121   62   63 1    
   122   62   64 1    
   123   62  123 1    
   124   63  124 1    
   125   63  125 1    
   126   63  126 1    
   127   64   65 am   BACKBONE|DICT|INTERRES
   128   64  127 1    
   129   65   66 2    
@<TRIPOS>SUBSTRUCTURE
     1 UNK         1 GROUP             0       ****    0 ROOT    
