@<TRIPOS>MOLECULE
3R134
127   129    1
SMALL
USER_CHARGES


@<TRIPOS>ATOM
      1 CA         29.7192  -45.6328  -54.2404 C.3       0 UNK        -0.1968 
      2 C          30.9641  -46.0329  -53.4624 C.2       0 UNK         0.4852 
      3 O          31.8493  -46.6824  -54.0216 O.2       0 UNK        -0.5359 
      4 N          31.0221  -45.6499  -52.1780 N.am      1 UNK        -0.4300 
      5 CA         32.1514  -45.8270  -51.2516 C.3       1 UNK         0.0863 
      6 C6         33.3923  -44.9797  -51.6607 C.3       11 UNK        -0.0953 
      7 S7         33.0325  -43.1934  -51.6457 S.3       11 UNK        -0.2369 
      8 C8         33.9280  -42.6226  -53.1233 C.3       11 UNK         0.0226 
      9 C9         33.1447  -42.8535  -54.4082 C.ar      11 UNK        -0.0699 
     10 C10        33.6141  -43.7406  -55.3805 C.ar      11 UNK        -0.0804 
     11 C11        32.9313  -43.8896  -56.5914 C.ar      11 UNK        -0.0871 
     12 C12        31.7609  -43.1578  -56.8186 C.ar      11 UNK        -0.1008 
     13 C13        31.2728  -42.2680  -55.8505 C.ar      11 UNK        -0.0735 
     14 C14        31.9756  -42.1273  -54.6502 C.ar      11 UNK        -0.0945 
     15 C15        30.0235  -41.4047  -56.0468 C.3       11 UNK         0.0169 
     16 S16        29.1603  -41.5711  -57.6475 S.3       11 UNK        -0.2669 
     17 C17        28.1715  -43.0782  -57.3660 C.3       11 UNK        -0.0850 
     18 CA         26.7525  -42.7736  -56.8058 C.3       10 UNK         0.0855 
     19 C          25.8119  -42.1536  -57.8832 C.2       10 UNK         0.5543 
     20 N          25.1034  -42.9502  -58.6709 N.am      10 UNK        -0.7343 
     21 O          25.7028  -40.9340  -57.9831 O.2       10 UNK        -0.5027 
     22 N          26.1831  -43.9184  -56.0699 N.am      10 UNK        -0.4495 
     23 C          25.9215  -45.1374  -56.5564 C.2       10 UNK         0.4903 
     24 O          26.1352  -45.4726  -57.7200 O.2       10 UNK        -0.4860 
     25 CA         25.2926  -46.1421  -55.5901 C.3       9 UNK         0.0227 
     26 CB         23.9933  -46.7395  -56.1606 C.3       9 UNK        -0.1964 
     27 N          26.2556  -47.2064  -55.3261 N.am      9 UNK        -0.4231 
     28 C          26.3396  -47.8799  -54.1729 C.2       9 UNK         0.5014 
     29 O          25.6077  -47.6678  -53.2033 O.2       9 UNK        -0.5270 
     30 CA         27.4292  -48.9650  -54.0905 C.3       8 UNK         0.0284 
     31 CB         27.4372  -49.7172  -52.7423 C.3       8 UNK        -0.1977 
     32 N          27.3779  -49.9101  -55.2111 N.am      8 UNK        -0.4342 
     33 C          26.3689  -50.7146  -55.5734 C.2       8 UNK         0.5039 
     34 O          25.2913  -50.7947  -54.9808 O.2       8 UNK        -0.5547 
     35 CA         26.6407  -51.5855  -56.8159 C.3       7 UNK         0.0281 
     36 CB         25.3914  -52.3379  -57.3243 C.3       7 UNK        -0.1963 
     37 N          27.2889  -50.8244  -57.8931 N.am      7 UNK        -0.4444 
     38 C          26.7751  -49.7928  -58.5817 C.2       7 UNK         0.5104 
     39 O          25.6228  -49.3779  -58.4524 O.2       7 UNK        -0.5100 
     40 CA         27.7404  -49.1077  -59.5727 C.3       6 UNK         0.0396 
     41 CB         27.1563  -47.8328  -60.2113 C.3       6 UNK        -0.1801 
     42 N          29.0647  -48.8315  -58.9976 N.am      6 UNK        -0.4747 
     43 C          29.3384  -48.1601  -57.8666 C.2       6 UNK         0.5012 
     44 O          28.4891  -47.6526  -57.1302 O.2       6 UNK        -0.5003 
     45 CA         30.8249  -48.0846  -57.4645 C.3       5 UNK         0.0782 
     46 C46        31.3620  -46.6440  -57.6295 C.3       11 UNK        -0.0868 
     47 S47        33.1592  -46.5581  -57.3437 S.3       11 UNK        -0.2515 
     48 C48        33.4896  -44.8016  -57.6756 C.3       11 UNK         0.0199 
     49 N          31.0497  -48.6023  -56.1095 N.am      5 UNK        -0.4607 
     50 C          30.7050  -49.8190  -55.6670 C.2       4 UNK         0.5031 
     51 O          30.0833  -50.6427  -56.3423 O.2       4 UNK        -0.5119 
     52 CA         31.0968  -50.1579  -54.2181 C.3       4 UNK         0.0263 
     53 CB         30.8944  -51.6471  -53.8679 C.3       4 UNK        -0.1967 
     54 N          32.4521  -49.7188  -53.8800 N.am      4 UNK        -0.4237 
     55 C          33.6073  -50.0948  -54.4532 C.2       3 UNK         0.4908 
     56 O          33.6906  -50.9085  -55.3739 O.2       3 UNK        -0.5102 
     57 CA         34.9013  -49.4584  -53.9079 C.3       3 UNK         0.0241 
     58 CB         35.3649  -48.3184  -54.8294 C.3       3 UNK        -0.1971 
     59 N          34.7602  -48.9344  -52.5484 N.am      3 UNK        -0.4139 
     60 C          34.5773  -49.6727  -51.4439 C.2       2 UNK         0.5016 
     61 O          34.6482  -50.9017  -51.4199 O.2       2 UNK        -0.5319 
     62 CA         34.2232  -48.9093  -50.1526 C.3       2 UNK         0.0286 
     63 CB         35.4558  -48.7889  -49.2419 C.3       2 UNK        -0.1963 
     64 N          33.6717  -47.5692  -50.3970 N.am      2 UNK        -0.4790 
     65 C          32.4958  -47.3149  -50.9925 C.2       1 UNK         0.5024 
     66 O          31.7127  -48.2080  -51.3251 O.2       1 UNK        -0.4888 
     67 H67        28.8774  -45.4197  -53.5821 H         1 UNK         0.0892 
     68 H68        29.9295  -44.7418  -54.8299 H         1 UNK         0.0892 
     69 H69        29.4226  -46.4268  -54.9226 H         1 UNK         0.0892 
     70 H70        30.2376  -45.1485  -51.7875 H         1 UNK         0.3107 
     71 H71        31.8006  -45.4531  -50.2885 H         1 UNK         0.0773 
     72 H72        33.7521  -45.2790  -52.6468 H         1 UNK         0.0680 
     73 H73        34.2277  -45.1188  -50.9740 H         1 UNK         0.0680 
     74 H74        34.1199  -41.5538  -53.0191 H         1 UNK         0.0650 
     75 H75        34.9068  -43.1030  -53.1651 H         1 UNK         0.0650 
     76 H76        34.5227  -44.3010  -55.2074 H         1 UNK         0.1397 
     77 H77        31.2497  -43.2774  -57.7625 H         1 UNK         0.1363 
     78 H78        31.6206  -41.4332  -53.9002 H         1 UNK         0.1355 
     79 H79        29.3171  -41.6059  -55.2399 H         1 UNK         0.0707 
     80 H80        30.3155  -40.3588  -55.9417 H         1 UNK         0.0707 
     81 H81        28.7184  -43.7244  -56.6788 H         1 UNK         0.1034 
     82 H82        28.1072  -43.6390  -58.3004 H         1 UNK         0.1034 
     83 H83        26.8674  -42.0083  -56.0367 H         1 UNK         0.0482 
     84 H84        25.2294  -43.9531  -58.5920 H         1 UNK         0.3460 
     85 H85        24.4841  -42.5598  -59.3629 H         1 UNK         0.3460 
     86 H86        25.9335  -43.7255  -55.1103 H         1 UNK         0.2989 
     87 H87        25.0533  -45.6213  -54.6604 H         1 UNK         0.0559 
     88 H88        23.2739  -45.9560  -56.4012 H         1 UNK         0.0848 
     89 H89        23.5184  -47.4105  -55.4448 H         1 UNK         0.0848 
     90 H90        24.1796  -47.3068  -57.0740 H         1 UNK         0.0848 
     91 H91        26.9221  -47.3997  -56.0743 H         1 UNK         0.3144 
     92 H92        28.3798  -48.4399  -54.1762 H         1 UNK         0.0727 
     93 H93        28.2351  -50.4577  -52.7008 H         1 UNK         0.0790 
     94 H94        26.4937  -50.2336  -52.5622 H         1 UNK         0.0790 
     95 H95        27.5936  -49.0271  -51.9122 H         1 UNK         0.0790 
     96 H96        28.2036  -49.9361  -55.7994 H         1 UNK         0.3215 
     97 H97        27.3654  -52.3379  -56.4999 H         1 UNK         0.0863 
     98 H98        25.6223  -52.9473  -58.1979 H         1 UNK         0.0808 
     99 H99        24.5849  -51.6553  -57.5933 H         1 UNK         0.0808 
    100 H100       25.0028  -53.0074  -56.5561 H         1 UNK         0.0808 
    101 H101       28.2629  -51.0487  -58.0535 H         1 UNK         0.3118 
    102 H102       27.8992  -49.8274  -60.3771 H         1 UNK         0.0546 
    103 H103       26.9907  -47.0551  -59.4690 H         1 UNK         0.0828 
    104 H104       26.1987  -48.0343  -60.6926 H         1 UNK         0.0828 
    105 H105       27.8228  -47.4293  -60.9731 H         1 UNK         0.0828 
    106 H106       29.8397  -49.2304  -59.5100 H         1 UNK         0.3005 
    107 H107       31.3918  -48.7329  -58.1360 H         1 UNK         0.1257 
    108 H108       31.1600  -46.2688  -58.6347 H         1 UNK         0.0775 
    109 H109       30.8617  -45.9648  -56.9376 H         1 UNK         0.0775 
    110 H110       34.5688  -44.6575  -57.7453 H         1 UNK         0.0840 
    111 H111       33.0875  -44.5345  -58.6542 H         1 UNK         0.0840 
    112 H112       31.5250  -47.9689  -55.4705 H         1 UNK         0.2987 
    113 H113       30.4333  -49.5763  -53.5778 H         1 UNK         0.0785 
    114 H114       31.1511  -51.8467  -52.8275 H         1 UNK         0.0798 
    115 H115       31.5049  -52.2970  -54.4954 H         1 UNK         0.0798 
    116 H116       29.8546  -51.9450  -54.0080 H         1 UNK         0.0798 
    117 H117       32.4908  -49.0137  -53.1522 H         1 UNK         0.3079 
    118 H118       35.6706  -50.2334  -53.8975 H         1 UNK         0.0794 
    119 H119       35.4753  -48.6651  -55.8579 H         1 UNK         0.0786 
    120 H120       36.3305  -47.9208  -54.5167 H         1 UNK         0.0786 
    121 H121       34.6488  -47.4950  -54.8396 H         1 UNK         0.0786 
    122 H122       34.6974  -47.9314  -52.4577 H         1 UNK         0.3032 
    123 H123       33.4640  -49.4969  -49.6310 H         1 UNK         0.1094 
    124 H124       36.2464  -48.1980  -49.7062 H         1 UNK         0.0794 
    125 H125       35.2023  -48.3240  -48.2890 H         1 UNK         0.0794 
    126 H126       35.8730  -49.7721  -49.0184 H         1 UNK         0.0794 
    127 H127       34.2503  -46.7897  -50.1168 H         1 UNK         0.3016 
@<TRIPOS>BOND
     1    1    2 1    
     2    1   67 1    
     3    1   68 1    
     4    1   69 1    
     5    2    3 2    
     6    2    4 am   BACKBONE|DICT|INTERRES
     7    4    5 1    
     8    4   70 1    
     9    5    6 1    
    10    5   65 1    
    11    5   71 1    
    12    6    7 1    
    13    6   72 1    
    14    6   73 1    
    15    7    8 1    
    16    8    9 1    
    17    8   74 1    
    18    8   75 1    
    19    9   10 ar   
    20    9   14 ar   
    21   10   11 ar   
    22   10   76 1    
    23   11   12 ar   
    24   11   48 1    
    25   12   13 ar   
    26   12   77 1    
    27   13   14 ar   
    28   13   15 1    
    29   14   78 1    
    30   15   16 1    
    31   15   79 1    
    32   15   80 1    
    33   16   17 1    
    34   17   18 1    
    35   17   81 1    
    36   17   82 1    
    37   18   19 1    
    38   18   22 1    
    39   18   83 1    
    40   19   20 am   BACKBONE|DICT|INTERRES
    41   19   21 2    
    42   20   84 1    
    43   20   85 1    
    44   22   23 am   BACKBONE|DICT|INTERRES
    45   22   86 1    
    46   23   24 2    
    47   23   25 1    
    48   25   26 1    
    49   25   27 1    
    50   25   87 1    
    51   26   88 1    
    52   26   89 1    
    53   26   90 1    
    54   27   28 am   BACKBONE|DICT|INTERRES
    55   27   91 1    
    56   28   29 2    
    57   28   30 1    
    58   30   31 1    
    59   30   32 1    
    60   30   92 1    
    61   31   93 1    
    62   31   94 1    
    63   31   95 1    
    64   32   33 am   BACKBONE|DICT|INTERRES
    65   32   96 1    
    66   33   34 2    
    67   33   35 1    
    68   35   36 1    
    69   35   37 1    
    70   35   97 1    
    71   36   98 1    
    72   36   99 1    
    73   36  100 1    
    74   37   38 am   BACKBONE|DICT|INTERRES
    75   37  101 1    
    76   38   39 2    
    77   38   40 1    
    78   40   41 1    
    79   40   42 1    
    80   40  102 1    
    81   41  103 1    
    82   41  104 1    
    83   41  105 1    
    84   42   43 am   BACKBONE|DICT|INTERRES
    85   42  106 1    
    86   43   44 2    
    87   43   45 1    
    88   45   46 1    
    89   45   49 1    
    90   45  107 1    
    91   46   47 1    
    92   46  108 1    
    93   46  109 1    
    94   47   48 1    
    95   48  110 1    
    96   48  111 1    
    97   49   50 am   BACKBONE|DICT|INTERRES
    98   49  112 1    
    99   50   51 2    
   100   50   52 1    
   101   52   53 1    
   102   52   54 1    
   103   52  113 1    
   104   53  114 1    
   105   53  115 1    
   106   53  116 1    
   107   54   55 am   BACKBONE|DICT|INTERRES
   108   54  117 1    
   109   55   56 2    
   110   55   57 1    
   111   57   58 1    
   112   57   59 1    
   113   57  118 1    
   114   58  119 1    
   115   58  120 1    
   116   58  121 1    
   117   59   60 am   BACKBONE|DICT|INTERRES
   118   59  122 1    
   119   60   61 2    
   120   60   62 1    
   121   62   63 1    
   122   62   64 1    
   123   62  123 1    
   124   63  124 1    
   125   63  125 1    
   126   63  126 1    
   127   64   65 am   BACKBONE|DICT|INTERRES
   128   64  127 1    
   129   65   66 2    
@<TRIPOS>SUBSTRUCTURE
     1 UNK         1 GROUP             0       ****    0 ROOT    
