@<TRIPOS>MOLECULE
3R134
127   129    1
SMALL
USER_CHARGES


@<TRIPOS>ATOM
      1 CA         37.0999  -44.6186  -49.7183 C.3       0 UNK        -0.1968 
      2 C          36.4090  -45.4579  -50.7828 C.2       0 UNK         0.4852 
      3 O          35.6612  -46.3764  -50.4445 O.2       0 UNK        -0.5359 
      4 N          36.6687  -45.1628  -52.0648 N.am      1 UNK        -0.4300 
      5 CA         36.1119  -45.7918  -53.2738 C.3       1 UNK         0.0863 
      6 C6         34.5605  -45.7104  -53.3477 C.3       11 UNK        -0.0953 
      7 S7         33.9537  -45.7100  -55.0693 S.3       11 UNK        -0.2369 
      8 C8         33.4747  -43.9695  -55.2986 C.3       11 UNK         0.0226 
      9 C9         31.9707  -43.7869  -55.1638 C.ar      11 UNK        -0.0699 
     10 C10        31.3753  -43.6598  -53.9037 C.ar      11 UNK        -0.0804 
     11 C11        29.9913  -43.4891  -53.7888 C.ar      11 UNK        -0.0871 
     12 C12        29.2074  -43.4464  -54.9438 C.ar      11 UNK        -0.1008 
     13 C13        29.7906  -43.5679  -56.2075 C.ar      11 UNK        -0.0735 
     14 C14        31.1729  -43.7396  -56.3113 C.ar      11 UNK        -0.0945 
     15 C15        28.9194  -43.5518  -57.4534 C.3       11 UNK         0.0169 
     16 S16        27.8834  -42.0557  -57.5420 S.3       11 UNK        -0.2669 
     17 C17        26.4669  -42.7193  -58.4718 C.3       11 UNK        -0.0850 
     18 CA         25.5545  -43.6325  -57.5843 C.3       10 UNK         0.0855 
     19 C          24.1064  -43.0835  -57.3977 C.2       10 UNK         0.5543 
     20 N          23.0842  -43.9276  -57.3276 N.am      10 UNK        -0.7343 
     21 O          23.9060  -41.8775  -57.2758 O.2       10 UNK        -0.5027 
     22 N          25.6431  -45.0530  -57.9682 N.am      10 UNK        -0.4495 
     23 C          25.2914  -45.5625  -59.1571 C.2       10 UNK         0.4903 
     24 O          24.8184  -44.8912  -60.0759 O.2       10 UNK        -0.4860 
     25 CA         25.5006  -47.0757  -59.3447 C.3       9 UNK         0.0227 
     26 CB         25.3859  -47.5242  -60.8173 C.3       9 UNK        -0.1964 
     27 N          26.7453  -47.5728  -58.7483 N.am      9 UNK        -0.4231 
     28 C          28.0090  -47.2372  -59.0583 C.2       9 UNK         0.5014 
     29 O          28.3050  -46.3827  -59.8944 O.2       9 UNK        -0.5270 
     30 CA         29.1479  -47.9819  -58.3244 C.3       8 UNK         0.0284 
     31 CB         29.9800  -47.0154  -57.4657 C.3       8 UNK        -0.1977 
     32 N          28.6858  -49.0820  -57.4746 N.am      8 UNK        -0.4342 
     33 C          28.1979  -50.2516  -57.9095 C.2       8 UNK         0.5039 
     34 O          28.1894  -50.5983  -59.0906 O.2       8 UNK        -0.5547 
     35 CA         27.5444  -51.1511  -56.8479 C.3       7 UNK         0.0281 
     36 CB         28.5908  -52.0534  -56.1742 C.3       7 UNK        -0.1963 
     37 N          26.8207  -50.3675  -55.8375 N.am      7 UNK        -0.4444 
     38 C          25.6749  -49.7088  -56.0713 C.2       7 UNK         0.5104 
     39 O          25.0861  -49.7319  -57.1508 O.2       7 UNK        -0.5100 
     40 CA         25.1072  -48.8470  -54.9304 C.3       6 UNK         0.0396 
     41 CB         24.2408  -49.7002  -53.9911 C.3       6 UNK        -0.1801 
     42 N          26.1519  -48.1743  -54.1569 N.am      6 UNK        -0.4747 
     43 C          26.8830  -47.1352  -54.5904 C.2       6 UNK         0.5012 
     44 O          26.7047  -46.5768  -55.6747 O.2       6 UNK        -0.5003 
     45 CA         28.0358  -46.6771  -53.6693 C.3       5 UNK         0.0782 
     46 C46        27.5719  -45.5449  -52.7204 C.3       11 UNK        -0.0868 
     47 S47        28.9306  -44.9307  -51.6618 S.3       11 UNK        -0.2515 
     48 C48        29.3397  -43.3282  -52.4229 C.3       11 UNK         0.0199 
     49 N          28.6385  -47.7932  -52.9264 N.am      5 UNK        -0.4607 
     50 C          29.2713  -48.8295  -53.4845 C.2       4 UNK         0.5031 
     51 O          29.3600  -49.0012  -54.7017 O.2       4 UNK        -0.5119 
     52 CA         29.8396  -49.8846  -52.5252 C.3       4 UNK         0.0263 
     53 CB         28.8350  -51.0315  -52.3266 C.3       4 UNK        -0.1967 
     54 N          31.0980  -50.4211  -53.0433 N.am      4 UNK        -0.4237 
     55 C          32.2578  -49.7568  -52.9929 C.2       3 UNK         0.4908 
     56 O          32.4075  -48.6778  -52.4115 O.2       3 UNK        -0.5102 
     57 CA         33.4468  -50.3945  -53.7194 C.3       3 UNK         0.0241 
     58 CB         33.3762  -50.1192  -55.2336 C.3       3 UNK        -0.1971 
     59 N          34.6599  -49.8122  -53.1610 N.am      3 UNK        -0.4139 
     60 C          35.8954  -50.3214  -53.1918 C.2       2 UNK         0.5016 
     61 O          36.1822  -51.3898  -53.7352 O.2       2 UNK        -0.5319 
     62 CA         36.9853  -49.4949  -52.4755 C.3       2 UNK         0.0286 
     63 CB         38.4087  -49.7859  -52.9982 C.3       2 UNK        -0.1963 
     64 N          36.6944  -48.0527  -52.4755 N.am      2 UNK        -0.4790 
     65 C          36.6201  -47.2297  -53.5324 C.2       1 UNK         0.5024 
     66 O          36.9238  -47.5609  -54.6790 O.2       1 UNK        -0.4888 
     67 H67        37.7323  -43.8452  -50.1537 H         1 UNK         0.0892 
     68 H68        36.3578  -44.1326  -49.0854 H         1 UNK         0.0892 
     69 H69        37.7235  -45.2518  -49.0879 H         1 UNK         0.0892 
     70 H70        37.3272  -44.4194  -52.2546 H         1 UNK         0.3107 
     71 H71        36.5123  -45.1832  -54.0868 H         1 UNK         0.0773 
     72 H72        34.0922  -46.5356  -52.8085 H         1 UNK         0.0680 
     73 H73        34.2057  -44.8073  -52.8503 H         1 UNK         0.0680 
     74 H74        33.8010  -43.6531  -56.2905 H         1 UNK         0.0650 
     75 H75        34.0012  -43.3241  -54.5943 H         1 UNK         0.0650 
     76 H76        31.9878  -43.6964  -53.0135 H         1 UNK         0.1397 
     77 H77        28.1375  -43.3125  -54.8651 H         1 UNK         0.1363 
     78 H78        31.6295  -43.8445  -57.2860 H         1 UNK         0.1355 
     79 H79        29.5209  -43.6204  -58.3612 H         1 UNK         0.0707 
     80 H80        28.2922  -44.4428  -57.4328 H         1 UNK         0.0707 
     81 H81        26.8563  -43.2513  -59.3410 H         1 UNK         0.1034 
     82 H82        25.9196  -41.8735  -58.8914 H         1 UNK         0.1034 
     83 H83        25.9438  -43.6231  -56.5655 H         1 UNK         0.0482 
     84 H84        23.2368  -44.9192  -57.4126 H         1 UNK         0.3460 
     85 H85        22.1525  -43.5671  -57.1941 H         1 UNK         0.3460 
     86 H86        26.0077  -45.6769  -57.2526 H         1 UNK         0.2989 
     87 H87        24.6910  -47.5571  -58.7950 H         1 UNK         0.0559 
     88 H88        26.1342  -47.0414  -61.4467 H         1 UNK         0.0848 
     89 H89        24.4066  -47.2756  -61.2280 H         1 UNK         0.0848 
     90 H90        25.5114  -48.6027  -60.9136 H         1 UNK         0.0848 
     91 H91        26.6177  -48.2789  -58.0358 H         1 UNK         0.3144 
     92 H92        29.8013  -48.4012  -59.0921 H         1 UNK         0.0727 
     93 H93        30.8175  -47.5249  -56.9882 H         1 UNK         0.0790 
     94 H94        29.3790  -46.5580  -56.6803 H         1 UNK         0.0790 
     95 H95        30.3959  -46.2104  -58.0724 H         1 UNK         0.0790 
     96 H96        28.7446  -48.9347  -56.4685 H         1 UNK         0.3215 
     97 H97        26.8228  -51.7938  -57.3576 H         1 UNK         0.0863 
     98 H98        29.3624  -51.4759  -55.6652 H         1 UNK         0.0808 
     99 H99        29.0930  -52.6791  -56.9133 H         1 UNK         0.0808 
    100 H100       28.1302  -52.7222  -55.4471 H         1 UNK         0.0808 
    101 H101       27.2714  -50.2493  -54.9426 H         1 UNK         0.3118 
    102 H102       24.4688  -48.0817  -55.3777 H         1 UNK         0.0546 
    103 H103       23.7704  -49.0888  -53.2209 H         1 UNK         0.0828 
    104 H104       24.8221  -50.4781  -53.4945 H         1 UNK         0.0828 
    105 H105       23.4399  -50.1947  -54.5426 H         1 UNK         0.0828 
    106 H106       26.3633  -48.5544  -53.2455 H         1 UNK         0.3005 
    107 H107       28.8129  -46.2734  -54.3222 H         1 UNK         0.1257 
    108 H108       26.7755  -45.9019  -52.0646 H         1 UNK         0.0775 
    109 H109       27.1422  -44.7147  -53.2825 H         1 UNK         0.0775 
    110 H110       28.4388  -42.7168  -52.4959 H         1 UNK         0.0840 
    111 H111       30.0150  -42.7879  -51.7577 H         1 UNK         0.0840 
    112 H112       28.6171  -47.7124  -51.9199 H         1 UNK         0.2987 
    113 H113       30.0282  -49.4186  -51.5551 H         1 UNK         0.0785 
    114 H114       29.2158  -51.7709  -51.6218 H         1 UNK         0.0798 
    115 H115       27.8912  -50.6614  -51.9239 H         1 UNK         0.0798 
    116 H116       28.6120  -51.5467  -53.2605 H         1 UNK         0.0798 
    117 H117       31.0450  -51.2803  -53.5704 H         1 UNK         0.3079 
    118 H118       33.4428  -51.4702  -53.5315 H         1 UNK         0.0794 
    119 H119       32.4620  -50.5267  -55.6673 H         1 UNK         0.0786 
    120 H120       34.2154  -50.5737  -55.7604 H         1 UNK         0.0786 
    121 H121       33.3890  -49.0489  -55.4461 H         1 UNK         0.0786 
    122 H122       34.4942  -48.9488  -52.6570 H         1 UNK         0.3032 
    123 H123       36.9528  -49.8086  -51.4308 H         1 UNK         0.1094 
    124 H124       38.4991  -49.5903  -54.0669 H         1 UNK         0.0794 
    125 H125       39.1534  -49.1812  -52.4808 H         1 UNK         0.0794 
    126 H126       38.6752  -50.8315  -52.8393 H         1 UNK         0.0794 
    127 H127       36.3940  -47.6569  -51.5856 H         1 UNK         0.3016 
@<TRIPOS>BOND
     1    1    2 1    
     2    1   67 1    
     3    1   68 1    
     4    1   69 1    
     5    2    3 2    
     6    2    4 am   BACKBONE|DICT|INTERRES
     7    4    5 1    
     8    4   70 1    
     9    5    6 1    
    10    5   65 1    
    11    5   71 1    
    12    6    7 1    
    13    6   72 1    
    14    6   73 1    
    15    7    8 1    
    16    8    9 1    
    17    8   74 1    
    18    8   75 1    
    19    9   10 ar   
    20    9   14 ar   
    21   10   11 ar   
    22   10   76 1    
    23   11   12 ar   
    24   11   48 1    
    25   12   13 ar   
    26   12   77 1    
    27   13   14 ar   
    28   13   15 1    
    29   14   78 1    
    30   15   16 1    
    31   15   79 1    
    32   15   80 1    
    33   16   17 1    
    34   17   18 1    
    35   17   81 1    
    36   17   82 1    
    37   18   19 1    
    38   18   22 1    
    39   18   83 1    
    40   19   20 am   BACKBONE|DICT|INTERRES
    41   19   21 2    
    42   20   84 1    
    43   20   85 1    
    44   22   23 am   BACKBONE|DICT|INTERRES
    45   22   86 1    
    46   23   24 2    
    47   23   25 1    
    48   25   26 1    
    49   25   27 1    
    50   25   87 1    
    51   26   88 1    
    52   26   89 1    
    53   26   90 1    
    54   27   28 am   BACKBONE|DICT|INTERRES
    55   27   91 1    
    56   28   29 2    
    57   28   30 1    
    58   30   31 1    
    59   30   32 1    
    60   30   92 1    
    61   31   93 1    
    62   31   94 1    
    63   31   95 1    
    64   32   33 am   BACKBONE|DICT|INTERRES
    65   32   96 1    
    66   33   34 2    
    67   33   35 1    
    68   35   36 1    
    69   35   37 1    
    70   35   97 1    
    71   36   98 1    
    72   36   99 1    
    73   36  100 1    
    74   37   38 am   BACKBONE|DICT|INTERRES
    75   37  101 1    
    76   38   39 2    
    77   38   40 1    
    78   40   41 1    
    79   40   42 1    
    80   40  102 1    
    81   41  103 1    
    82   41  104 1    
    83   41  105 1    
    84   42   43 am   BACKBONE|DICT|INTERRES
    85   42  106 1    
    86   43   44 2    
    87   43   45 1    
    88   45   46 1    
    89   45   49 1    
    90   45  107 1    
    91   46   47 1    
    92   46  108 1    
    93   46  109 1    
    94   47   48 1    
    95   48  110 1    
    96   48  111 1    
    97   49   50 am   BACKBONE|DICT|INTERRES
    98   49  112 1    
    99   50   51 2    
   100   50   52 1    
   101   52   53 1    
   102   52   54 1    
   103   52  113 1    
   104   53  114 1    
   105   53  115 1    
   106   53  116 1    
   107   54   55 am   BACKBONE|DICT|INTERRES
   108   54  117 1    
   109   55   56 2    
   110   55   57 1    
   111   57   58 1    
   112   57   59 1    
   113   57  118 1    
   114   58  119 1    
   115   58  120 1    
   116   58  121 1    
   117   59   60 am   BACKBONE|DICT|INTERRES
   118   59  122 1    
   119   60   61 2    
   120   60   62 1    
   121   62   63 1    
   122   62   64 1    
   123   62  123 1    
   124   63  124 1    
   125   63  125 1    
   126   63  126 1    
   127   64   65 am   BACKBONE|DICT|INTERRES
   128   64  127 1    
   129   65   66 2    
@<TRIPOS>SUBSTRUCTURE
     1 UNK         1 GROUP             0       ****    0 ROOT    
