@<TRIPOS>MOLECULE
3R134
127   129    1
SMALL
USER_CHARGES


@<TRIPOS>ATOM
      1 CA         39.3295  -48.1930  -55.5363 C.3       0 UNK        -0.1968 
      2 C          37.8198  -48.3528  -55.4374 C.2       0 UNK         0.4852 
      3 O          37.2640  -49.2932  -56.0085 O.2       0 UNK        -0.5359 
      4 N          37.1480  -47.4519  -54.7074 N.am      1 UNK        -0.4300 
      5 CA         35.6964  -47.4342  -54.4891 C.3       1 UNK         0.0863 
      6 C6         35.2048  -45.9988  -54.1714 C.3       11 UNK        -0.0953 
      7 S7         33.4181  -45.7737  -54.4737 S.3       11 UNK        -0.2369 
      8 C8         33.4106  -44.1549  -55.3067 C.3       11 UNK         0.0226 
      9 C9         32.0888  -43.4457  -55.0752 C.ar      11 UNK        -0.0699 
     10 C10        31.8513  -42.8198  -53.8500 C.ar      11 UNK        -0.0804 
     11 C11        30.6157  -42.2246  -53.5840 C.ar      11 UNK        -0.0871 
     12 C12        29.6304  -42.2096  -54.5771 C.ar      11 UNK        -0.1008 
     13 C13        29.8662  -42.8169  -55.8151 C.ar      11 UNK        -0.0735 
     14 C14        31.0963  -43.4366  -56.0584 C.ar      11 UNK        -0.0945 
     15 C15        28.7914  -42.8097  -56.8889 C.3       11 UNK         0.0169 
     16 S16        27.6696  -44.2323  -56.7236 S.3       11 UNK        -0.2669 
     17 C17        26.6986  -44.0221  -58.2556 C.3       11 UNK        -0.0850 
     18 CA         25.3081  -44.7094  -58.2233 C.3       10 UNK         0.0855 
     19 C          24.5043  -44.3667  -59.5141 C.2       10 UNK         0.5543 
     20 N          24.1883  -45.3196  -60.3851 N.am      10 UNK        -0.7343 
     21 O          24.1552  -43.2078  -59.7251 O.2       10 UNK        -0.5027 
     22 N          25.3991  -46.1528  -57.9482 N.am      10 UNK        -0.4495 
     23 C          24.3688  -46.8939  -57.5109 C.2       10 UNK         0.4903 
     24 O          23.2937  -46.4077  -57.1564 O.2       10 UNK        -0.4860 
     25 CA         24.5479  -48.4271  -57.4543 C.3       9 UNK         0.0227 
     26 CB         23.2311  -49.1829  -57.7316 C.3       9 UNK        -0.1964 
     27 N          25.6267  -48.9409  -58.3063 N.am      9 UNK        -0.4231 
     28 C          25.7467  -48.8322  -59.6399 C.2       9 UNK         0.5014 
     29 O          24.8986  -48.3064  -60.3641 O.2       9 UNK        -0.5270 
     30 CA         27.0745  -49.3464  -60.2426 C.3       8 UNK         0.0284 
     31 CB         27.3366  -48.8049  -61.6645 C.3       8 UNK        -0.1977 
     32 N          28.2262  -49.0880  -59.3623 N.am      8 UNK        -0.4342 
     33 C          28.6047  -47.8911  -58.8894 C.2       8 UNK         0.5039 
     34 O          28.0944  -46.8246  -59.2313 O.2       8 UNK        -0.5547 
     35 CA         29.6377  -47.8923  -57.7517 C.3       7 UNK         0.0281 
     36 CB         30.7541  -46.8646  -58.0029 C.3       7 UNK        -0.1963 
     37 N          28.9759  -47.5774  -56.4831 N.am      7 UNK        -0.4444 
     38 C          28.0531  -48.3433  -55.8824 C.2       7 UNK         0.5104 
     39 O          27.6963  -49.4401  -56.3166 O.2       7 UNK        -0.5100 
     40 CA         27.4323  -47.7975  -54.5878 C.3       6 UNK         0.0396 
     41 CB         26.8450  -48.9023  -53.6892 C.3       6 UNK        -0.1801 
     42 N          28.4124  -47.0089  -53.8418 N.am      6 UNK        -0.4747 
     43 C          28.1282  -45.9267  -53.1076 C.2       6 UNK         0.5012 
     44 O          26.9823  -45.5149  -52.9171 O.2       6 UNK        -0.5003 
     45 CA         29.3376  -45.1763  -52.5121 C.3       5 UNK         0.0782 
     46 C46        28.9224  -44.0464  -51.5222 C.3       11 UNK        -0.0868 
     47 S47        30.3206  -43.0192  -50.9523 S.3       11 UNK        -0.2515 
     48 C48        30.3278  -41.6794  -52.1935 C.3       11 UNK         0.0199 
     49 N          30.3728  -46.0906  -52.0075 N.am      5 UNK        -0.4607 
     50 C          30.2689  -46.9010  -50.9468 C.2       4 UNK         0.5031 
     51 O          29.2676  -46.9829  -50.2330 O.2       4 UNK        -0.5119 
     52 CA         31.5055  -47.7743  -50.6590 C.3       4 UNK         0.0263 
     53 CB         31.4309  -48.4923  -49.2945 C.3       4 UNK        -0.1967 
     54 N          31.7796  -48.7371  -51.7348 N.am      4 UNK        -0.4237 
     55 C          30.9642  -49.7072  -52.1873 C.2       3 UNK         0.4908 
     56 O          29.8260  -49.9039  -51.7633 O.2       3 UNK        -0.5102 
     57 CA         31.4909  -50.6295  -53.3057 C.3       3 UNK         0.0241 
     58 CB         30.8652  -50.2510  -54.6571 C.3       3 UNK        -0.1971 
     59 N          32.9471  -50.6257  -53.4419 N.am      3 UNK        -0.4139 
     60 C          33.8094  -51.1572  -52.5644 C.2       2 UNK         0.5016 
     61 O          33.4688  -51.8002  -51.5710 O.2       2 UNK        -0.5319 
     62 CA         35.3069  -50.9083  -52.8268 C.3       2 UNK         0.0286 
     63 CB         35.9641  -52.1590  -53.4324 C.3       2 UNK        -0.1963 
     64 N          35.5852  -49.7555  -53.6941 N.am      2 UNK        -0.4790 
     65 C          35.2786  -48.4783  -53.4261 C.2       1 UNK         0.5024 
     66 O          34.6893  -48.1319  -52.4000 O.2       1 UNK        -0.4888 
     67 H67        39.6848  -47.3217  -54.9865 H         1 UNK         0.0892 
     68 H68        39.8269  -49.0747  -55.1333 H         1 UNK         0.0892 
     69 H69        39.6266  -48.0803  -56.5786 H         1 UNK         0.0892 
     70 H70        37.6651  -46.7252  -54.2325 H         1 UNK         0.3107 
     71 H71        35.2237  -47.7377  -55.4262 H         1 UNK         0.0773 
     72 H72        35.4356  -45.7109  -53.1440 H         1 UNK         0.0680 
     73 H73        35.7438  -45.2913  -54.8034 H         1 UNK         0.0680 
     74 H74        33.6023  -44.2933  -56.3718 H         1 UNK         0.0650 
     75 H75        34.2175  -43.5298  -54.9213 H         1 UNK         0.0650 
     76 H76        32.6096  -42.8472  -53.0789 H         1 UNK         0.1397 
     77 H77        28.6685  -41.7562  -54.3788 H         1 UNK         0.1363 
     78 H78        31.2777  -43.9185  -57.0089 H         1 UNK         0.1355 
     79 H79        29.2538  -42.8275  -57.8773 H         1 UNK         0.0707 
     80 H80        28.2152  -41.8847  -56.8340 H         1 UNK         0.0707 
     81 H81        26.5727  -42.9515  -58.4298 H         1 UNK         0.1034 
     82 H82        27.2897  -44.3908  -59.0952 H         1 UNK         0.1034 
     83 H83        24.7533  -44.2574  -57.3988 H         1 UNK         0.0482 
     84 H84        23.6653  -45.0764  -61.2110 H         1 UNK         0.3460 
     85 H85        24.4706  -46.2818  -60.2346 H         1 UNK         0.3460 
     86 H86        26.2553  -46.5992  -58.2585 H         1 UNK         0.2989 
     87 H87        24.8444  -48.6535  -56.4296 H         1 UNK         0.0559 
     88 H88        22.4648  -48.9200  -57.0013 H         1 UNK         0.0848 
     89 H89        23.3724  -50.2621  -57.6731 H         1 UNK         0.0848 
     90 H90        22.8311  -48.9497  -58.7188 H         1 UNK         0.0848 
     91 H91        26.4062  -49.3488  -57.7960 H         1 UNK         0.3144 
     92 H92        26.9750  -50.4305  -60.3140 H         1 UNK         0.0727 
     93 H93        27.3870  -47.7156  -61.6802 H         1 UNK         0.0790 
     94 H94        26.5409  -49.1023  -62.3487 H         1 UNK         0.0790 
     95 H95        28.2722  -49.1900  -62.0697 H         1 UNK         0.0790 
     96 H96        28.6754  -49.9108  -58.9820 H         1 UNK         0.3215 
     97 H97        30.0912  -48.8824  -57.6708 H         1 UNK         0.0863 
     98 H98        31.4867  -46.8638  -57.1952 H         1 UNK         0.0808 
     99 H99        30.3555  -45.8537  -58.0968 H         1 UNK         0.0808 
    100 H100       31.2883  -47.0897  -58.9268 H         1 UNK         0.0808 
    101 H101       29.1341  -46.6500  -56.1156 H         1 UNK         0.3118 
    102 H102       26.6158  -47.1457  -54.9060 H         1 UNK         0.0546 
    103 H103       27.6111  -49.6103  -53.3724 H         1 UNK         0.0828 
    104 H104       26.0722  -49.4676  -54.2113 H         1 UNK         0.0828 
    105 H105       26.3872  -48.4836  -52.7930 H         1 UNK         0.0828 
    106 H106       29.3753  -47.3053  -53.9171 H         1 UNK         0.3005 
    107 H107       29.7884  -44.7031  -53.3809 H         1 UNK         0.1257 
    108 H108       28.4331  -44.4702  -50.6440 H         1 UNK         0.0775 
    109 H109       28.1848  -43.3856  -51.9815 H         1 UNK         0.0775 
    110 H110       29.3731  -41.1517  -52.1659 H         1 UNK         0.0840 
    111 H111       31.0926  -40.9487  -51.9267 H         1 UNK         0.0840 
    112 H112       31.2432  -46.0861  -52.5213 H         1 UNK         0.2987 
    113 H113       32.3632  -47.1000  -50.6237 H         1 UNK         0.0785 
    114 H114       31.3083  -47.7737  -48.4832 H         1 UNK         0.0798 
    115 H115       32.3421  -49.0561  -49.0944 H         1 UNK         0.0798 
    116 H116       30.5907  -49.1856  -49.2433 H         1 UNK         0.0798 
    117 H117       32.7050  -48.6603  -52.1445 H         1 UNK         0.3079 
    118 H118       31.1806  -51.6473  -53.0593 H         1 UNK         0.0794 
    119 H119       31.2023  -50.9147  -55.4534 H         1 UNK         0.0786 
    120 H120       31.1070  -49.2274  -54.9462 H         1 UNK         0.0786 
    121 H121       29.7794  -50.3364  -54.6118 H         1 UNK         0.0786 
    122 H122       33.3309  -50.1359  -54.2367 H         1 UNK         0.3032 
    123 H123       35.7696  -50.7107  -51.8572 H         1 UNK         0.1094 
    124 H124       35.5573  -52.3913  -54.4174 H         1 UNK         0.0794 
    125 H125       37.0418  -52.0306  -53.5359 H         1 UNK         0.0794 
    126 H126       35.8031  -53.0320  -52.7982 H         1 UNK         0.0794 
    127 H127       36.0970  -49.9344  -54.5547 H         1 UNK         0.3016 
@<TRIPOS>BOND
     1    1    2 1    
     2    1   67 1    
     3    1   68 1    
     4    1   69 1    
     5    2    3 2    
     6    2    4 am   BACKBONE|DICT|INTERRES
     7    4    5 1    
     8    4   70 1    
     9    5    6 1    
    10    5   65 1    
    11    5   71 1    
    12    6    7 1    
    13    6   72 1    
    14    6   73 1    
    15    7    8 1    
    16    8    9 1    
    17    8   74 1    
    18    8   75 1    
    19    9   10 ar   
    20    9   14 ar   
    21   10   11 ar   
    22   10   76 1    
    23   11   12 ar   
    24   11   48 1    
    25   12   13 ar   
    26   12   77 1    
    27   13   14 ar   
    28   13   15 1    
    29   14   78 1    
    30   15   16 1    
    31   15   79 1    
    32   15   80 1    
    33   16   17 1    
    34   17   18 1    
    35   17   81 1    
    36   17   82 1    
    37   18   19 1    
    38   18   22 1    
    39   18   83 1    
    40   19   20 am   BACKBONE|DICT|INTERRES
    41   19   21 2    
    42   20   84 1    
    43   20   85 1    
    44   22   23 am   BACKBONE|DICT|INTERRES
    45   22   86 1    
    46   23   24 2    
    47   23   25 1    
    48   25   26 1    
    49   25   27 1    
    50   25   87 1    
    51   26   88 1    
    52   26   89 1    
    53   26   90 1    
    54   27   28 am   BACKBONE|DICT|INTERRES
    55   27   91 1    
    56   28   29 2    
    57   28   30 1    
    58   30   31 1    
    59   30   32 1    
    60   30   92 1    
    61   31   93 1    
    62   31   94 1    
    63   31   95 1    
    64   32   33 am   BACKBONE|DICT|INTERRES
    65   32   96 1    
    66   33   34 2    
    67   33   35 1    
    68   35   36 1    
    69   35   37 1    
    70   35   97 1    
    71   36   98 1    
    72   36   99 1    
    73   36  100 1    
    74   37   38 am   BACKBONE|DICT|INTERRES
    75   37  101 1    
    76   38   39 2    
    77   38   40 1    
    78   40   41 1    
    79   40   42 1    
    80   40  102 1    
    81   41  103 1    
    82   41  104 1    
    83   41  105 1    
    84   42   43 am   BACKBONE|DICT|INTERRES
    85   42  106 1    
    86   43   44 2    
    87   43   45 1    
    88   45   46 1    
    89   45   49 1    
    90   45  107 1    
    91   46   47 1    
    92   46  108 1    
    93   46  109 1    
    94   47   48 1    
    95   48  110 1    
    96   48  111 1    
    97   49   50 am   BACKBONE|DICT|INTERRES
    98   49  112 1    
    99   50   51 2    
   100   50   52 1    
   101   52   53 1    
   102   52   54 1    
   103   52  113 1    
   104   53  114 1    
   105   53  115 1    
   106   53  116 1    
   107   54   55 am   BACKBONE|DICT|INTERRES
   108   54  117 1    
   109   55   56 2    
   110   55   57 1    
   111   57   58 1    
   112   57   59 1    
   113   57  118 1    
   114   58  119 1    
   115   58  120 1    
   116   58  121 1    
   117   59   60 am   BACKBONE|DICT|INTERRES
   118   59  122 1    
   119   60   61 2    
   120   60   62 1    
   121   62   63 1    
   122   62   64 1    
   123   62  123 1    
   124   63  124 1    
   125   63  125 1    
   126   63  126 1    
   127   64   65 am   BACKBONE|DICT|INTERRES
   128   64  127 1    
   129   65   66 2    
@<TRIPOS>SUBSTRUCTURE
     1 UNK         1 GROUP             0       ****    0 ROOT    
