@<TRIPOS>MOLECULE
3R134
127   129    1
SMALL
USER_CHARGES


@<TRIPOS>ATOM
      1 CA         37.2274  -47.2875  -54.4372 C.3       0 UNK        -0.1968 
      2 C          35.8786  -47.3865  -53.7419 C.2       0 UNK         0.4852 
      3 O          35.5133  -48.4670  -53.2787 O.2       0 UNK        -0.5359 
      4 N          35.1524  -46.2630  -53.6446 N.am      1 UNK        -0.4300 
      5 CA         33.7957  -46.1338  -53.0864 C.3       1 UNK         0.0863 
      6 C6         33.3094  -44.6635  -53.1045 C.3       11 UNK        -0.0953 
      7 S7         33.3966  -43.8981  -54.7585 S.3       11 UNK        -0.2369 
      8 C8         31.7983  -43.0349  -54.8549 C.3       11 UNK         0.0226 
      9 C9         30.6791  -43.9608  -55.3059 C.ar      11 UNK        -0.0699 
     10 C10        29.8248  -44.5562  -54.3721 C.ar      11 UNK        -0.0804 
     11 C11        28.7748  -45.3759  -54.7960 C.ar      11 UNK        -0.0871 
     12 C12        28.5893  -45.6015  -56.1623 C.ar      11 UNK        -0.1008 
     13 C13        29.4289  -45.0043  -57.1067 C.ar      11 UNK        -0.0735 
     14 C14        30.4774  -44.1906  -56.6702 C.ar      11 UNK        -0.0945 
     15 C15        29.1962  -45.2196  -58.5968 C.3       11 UNK         0.0169 
     16 S16        27.4837  -44.8652  -59.1062 S.3       11 UNK        -0.2669 
     17 C17        27.3175  -43.0868  -58.7355 C.3       11 UNK        -0.0850 
     18 CA         26.6952  -42.7901  -57.3435 C.3       10 UNK         0.0855 
     19 C          26.5719  -41.2532  -57.1253 C.2       10 UNK         0.5543 
     20 N          25.3751  -40.6899  -57.0109 N.am      10 UNK        -0.7343 
     21 O          27.5835  -40.5592  -57.0605 O.2       10 UNK        -0.5027 
     22 N          25.4591  -43.5580  -57.1019 N.am      10 UNK        -0.4495 
     23 C          24.8928  -43.7403  -55.9039 C.2       10 UNK         0.4903 
     24 O          25.3700  -43.3203  -54.8496 O.2       10 UNK        -0.4860 
     25 CA         23.5562  -44.5016  -55.8598 C.3       9 UNK         0.0227 
     26 CB         22.4128  -43.6617  -56.4647 C.3       9 UNK        -0.1964 
     27 N          23.5909  -45.8576  -56.4248 N.am      9 UNK        -0.4231 
     28 C          23.7744  -46.2388  -57.6964 C.2       9 UNK         0.5014 
     29 O          23.9845  -45.4673  -58.6356 O.2       9 UNK        -0.5270 
     30 CA         23.6248  -47.7462  -57.9684 C.3       8 UNK         0.0284 
     31 CB         22.2438  -48.0465  -58.5748 C.3       8 UNK        -0.1977 
     32 N          24.6647  -48.2559  -58.8630 N.am      8 UNK        -0.4342 
     33 C          25.9509  -48.3872  -58.5197 C.2       8 UNK         0.5039 
     34 O          26.3871  -48.1122  -57.3982 O.2       8 UNK        -0.5547 
     35 CA         26.9049  -48.9506  -59.5847 C.3       7 UNK         0.0281 
     36 CB         26.8344  -48.1855  -60.9235 C.3       7 UNK        -0.1963 
     37 N          28.2563  -48.9086  -59.0349 N.am      7 UNK        -0.4444 
     38 C          29.3213  -49.5901  -59.4665 C.2       7 UNK         0.5104 
     39 O          29.3041  -50.3371  -60.4455 O.2       7 UNK        -0.5100 
     40 CA         30.6351  -49.4166  -58.6794 C.3       6 UNK         0.0396 
     41 CB         31.6165  -48.5178  -59.4499 C.3       6 UNK        -0.1801 
     42 N          30.4580  -48.8877  -57.3206 N.am      6 UNK        -0.4747 
     43 C          30.0006  -49.6111  -56.2888 C.2       6 UNK         0.5012 
     44 O          29.6231  -50.7811  -56.3896 O.2       6 UNK        -0.5003 
     45 CA         29.9664  -48.9260  -54.9088 C.3       5 UNK         0.0782 
     46 C46        28.5125  -48.6328  -54.4703 C.3       11 UNK        -0.0868 
     47 S47        28.4659  -47.5083  -53.0356 S.3       11 UNK        -0.2515 
     48 C48        27.8121  -45.9818  -53.7843 C.3       11 UNK         0.0199 
     49 N          30.6497  -49.7854  -53.9401 N.am      5 UNK        -0.4607 
     50 C          31.9750  -49.9346  -53.8620 C.2       4 UNK         0.5031 
     51 O          32.7813  -49.2700  -54.5133 O.2       4 UNK        -0.5119 
     52 CA         32.4710  -51.0641  -52.9552 C.3       4 UNK         0.0263 
     53 CB         32.6520  -52.3587  -53.7730 C.3       4 UNK        -0.1967 
     54 N          33.7276  -50.6827  -52.3136 N.am      4 UNK        -0.4237 
     55 C          34.2370  -51.2881  -51.2313 C.2       3 UNK         0.4908 
     56 O          33.7124  -52.2539  -50.6747 O.2       3 UNK        -0.5102 
     57 CA         35.5342  -50.7120  -50.6493 C.3       3 UNK         0.0241 
     58 CB         36.7491  -51.0823  -51.5175 C.3       3 UNK        -0.1971 
     59 N          35.4344  -49.2602  -50.5097 N.am      3 UNK        -0.4139 
     60 C          34.9256  -48.6401  -49.4349 C.2       2 UNK         0.5016 
     61 O          34.5645  -49.2274  -48.4140 O.2       2 UNK        -0.5319 
     62 CA         34.7988  -47.1063  -49.4892 C.3       2 UNK         0.0286 
     63 CB         35.9820  -46.4439  -48.7646 C.3       2 UNK        -0.1963 
     64 N          34.7141  -46.5732  -50.8503 N.am      2 UNK        -0.4790 
     65 C          33.6510  -46.7020  -51.6580 C.2       1 UNK         0.5024 
     66 O          32.5994  -47.2459  -51.3207 O.2       1 UNK        -0.4888 
     67 H67        38.0229  -47.5870  -53.7556 H         1 UNK         0.0892 
     68 H68        37.2506  -47.9515  -55.3008 H         1 UNK         0.0892 
     69 H69        37.4370  -46.2749  -54.7814 H         1 UNK         0.0892 
     70 H70        35.5159  -45.4133  -54.0528 H         1 UNK         0.3107 
     71 H71        33.1343  -46.7176  -53.7293 H         1 UNK         0.0773 
     72 H72        32.2838  -44.6067  -52.7370 H         1 UNK         0.0680 
     73 H73        33.9072  -44.0517  -52.4259 H         1 UNK         0.0680 
     74 H74        31.8923  -42.2103  -55.5631 H         1 UNK         0.0650 
     75 H75        31.5623  -42.5778  -53.8926 H         1 UNK         0.0650 
     76 H76        29.9645  -44.3712  -53.3160 H         1 UNK         0.1397 
     77 H77        27.7625  -46.2101  -56.4984 H         1 UNK         0.1363 
     78 H78        31.1324  -43.7215  -57.3917 H         1 UNK         0.1355 
     79 H79        29.4145  -46.2585  -58.8378 H         1 UNK         0.0707 
     80 H80        29.8772  -44.6118  -59.1946 H         1 UNK         0.0707 
     81 H81        28.2981  -42.6150  -58.8238 H         1 UNK         0.1034 
     82 H82        26.7012  -42.6461  -59.5212 H         1 UNK         0.1034 
     83 H83        27.4124  -43.1203  -56.5918 H         1 UNK         0.0482 
     84 H84        25.3072  -39.6945  -56.8685 H         1 UNK         0.3460 
     85 H85        24.5418  -41.2523  -57.0668 H         1 UNK         0.3460 
     86 H86        25.0305  -44.0085  -57.9058 H         1 UNK         0.2989 
     87 H87        23.3189  -44.6416  -54.8038 H         1 UNK         0.0559 
     88 H88        22.3425  -42.6899  -55.9743 H         1 UNK         0.0848 
     89 H89        21.4497  -44.1562  -56.3386 H         1 UNK         0.0848 
     90 H90        22.5549  -43.4769  -57.5299 H         1 UNK         0.0848 
     91 H91        23.4507  -46.5930  -55.7454 H         1 UNK         0.3144 
     92 H92        23.7049  -48.2866  -57.0224 H         1 UNK         0.0727 
     93 H93        22.0987  -49.1165  -58.7251 H         1 UNK         0.0790 
     94 H94        22.1087  -47.5494  -59.5365 H         1 UNK         0.0790 
     95 H95        21.4451  -47.7019  -57.9164 H         1 UNK         0.0790 
     96 H96        24.3849  -48.4674  -59.8094 H         1 UNK         0.3215 
     97 H97        26.6304  -49.9944  -59.7505 H         1 UNK         0.0863 
     98 H98        27.5211  -48.6044  -61.6588 H         1 UNK         0.0808 
     99 H99        27.0858  -47.1333  -60.8020 H         1 UNK         0.0808 
    100 H100       25.8380  -48.2347  -61.3627 H         1 UNK         0.0808 
    101 H101       28.3190  -48.3798  -58.1733 H         1 UNK         0.3118 
    102 H102       31.0904  -50.4063  -58.5993 H         1 UNK         0.0546 
    103 H103       31.2378  -47.5034  -59.5703 H         1 UNK         0.0828 
    104 H104       31.8028  -48.9133  -60.4495 H         1 UNK         0.0828 
    105 H105       32.5806  -48.4588  -58.9446 H         1 UNK         0.0828 
    106 H106       30.7600  -47.9365  -57.1619 H         1 UNK         0.3005 
    107 H107       30.5082  -47.9788  -54.9766 H         1 UNK         0.1257 
    108 H108       27.9351  -48.1965  -55.2845 H         1 UNK         0.0775 
    109 H109       27.9923  -49.5559  -54.2080 H         1 UNK         0.0775 
    110 H110       26.8468  -46.1884  -54.2501 H         1 UNK         0.0840 
    111 H111       27.6126  -45.2575  -52.9931 H         1 UNK         0.0840 
    112 H112       30.0543  -50.3928  -53.3969 H         1 UNK         0.2987 
    113 H113       31.7237  -51.2321  -52.1764 H         1 UNK         0.0785 
    114 H114       31.7305  -52.6268  -54.2921 H         1 UNK         0.0798 
    115 H115       32.9193  -53.2034  -53.1382 H         1 UNK         0.0798 
    116 H116       33.4310  -52.2476  -54.5284 H         1 UNK         0.0798 
    117 H117       34.2105  -49.8877  -52.7305 H         1 UNK         0.3079 
    118 H118       35.6882  -51.1586  -49.6643 H         1 UNK         0.0794 
    119 H119       37.6727  -50.6885  -51.0933 H         1 UNK         0.0786 
    120 H120       36.6605  -50.7025  -52.5355 H         1 UNK         0.0786 
    121 H121       36.8596  -52.1653  -51.5855 H         1 UNK         0.0786 
    122 H122       35.6321  -48.7170  -51.3448 H         1 UNK         0.3032 
    123 H123       33.8802  -46.8399  -48.9609 H         1 UNK         0.1094 
    124 H124       36.9314  -46.6651  -49.2541 H         1 UNK         0.0794 
    125 H125       35.8674  -45.3605  -48.7245 H         1 UNK         0.0794 
    126 H126       36.0563  -46.7977  -47.7352 H         1 UNK         0.0794 
    127 H127       35.5356  -46.1111  -51.2134 H         1 UNK         0.3016 
@<TRIPOS>BOND
     1    1    2 1    
     2    1   67 1    
     3    1   68 1    
     4    1   69 1    
     5    2    3 2    
     6    2    4 am   BACKBONE|DICT|INTERRES
     7    4    5 1    
     8    4   70 1    
     9    5    6 1    
    10    5   65 1    
    11    5   71 1    
    12    6    7 1    
    13    6   72 1    
    14    6   73 1    
    15    7    8 1    
    16    8    9 1    
    17    8   74 1    
    18    8   75 1    
    19    9   10 ar   
    20    9   14 ar   
    21   10   11 ar   
    22   10   76 1    
    23   11   12 ar   
    24   11   48 1    
    25   12   13 ar   
    26   12   77 1    
    27   13   14 ar   
    28   13   15 1    
    29   14   78 1    
    30   15   16 1    
    31   15   79 1    
    32   15   80 1    
    33   16   17 1    
    34   17   18 1    
    35   17   81 1    
    36   17   82 1    
    37   18   19 1    
    38   18   22 1    
    39   18   83 1    
    40   19   20 am   BACKBONE|DICT|INTERRES
    41   19   21 2    
    42   20   84 1    
    43   20   85 1    
    44   22   23 am   BACKBONE|DICT|INTERRES
    45   22   86 1    
    46   23   24 2    
    47   23   25 1    
    48   25   26 1    
    49   25   27 1    
    50   25   87 1    
    51   26   88 1    
    52   26   89 1    
    53   26   90 1    
    54   27   28 am   BACKBONE|DICT|INTERRES
    55   27   91 1    
    56   28   29 2    
    57   28   30 1    
    58   30   31 1    
    59   30   32 1    
    60   30   92 1    
    61   31   93 1    
    62   31   94 1    
    63   31   95 1    
    64   32   33 am   BACKBONE|DICT|INTERRES
    65   32   96 1    
    66   33   34 2    
    67   33   35 1    
    68   35   36 1    
    69   35   37 1    
    70   35   97 1    
    71   36   98 1    
    72   36   99 1    
    73   36  100 1    
    74   37   38 am   BACKBONE|DICT|INTERRES
    75   37  101 1    
    76   38   39 2    
    77   38   40 1    
    78   40   41 1    
    79   40   42 1    
    80   40  102 1    
    81   41  103 1    
    82   41  104 1    
    83   41  105 1    
    84   42   43 am   BACKBONE|DICT|INTERRES
    85   42  106 1    
    86   43   44 2    
    87   43   45 1    
    88   45   46 1    
    89   45   49 1    
    90   45  107 1    
    91   46   47 1    
    92   46  108 1    
    93   46  109 1    
    94   47   48 1    
    95   48  110 1    
    96   48  111 1    
    97   49   50 am   BACKBONE|DICT|INTERRES
    98   49  112 1    
    99   50   51 2    
   100   50   52 1    
   101   52   53 1    
   102   52   54 1    
   103   52  113 1    
   104   53  114 1    
   105   53  115 1    
   106   53  116 1    
   107   54   55 am   BACKBONE|DICT|INTERRES
   108   54  117 1    
   109   55   56 2    
   110   55   57 1    
   111   57   58 1    
   112   57   59 1    
   113   57  118 1    
   114   58  119 1    
   115   58  120 1    
   116   58  121 1    
   117   59   60 am   BACKBONE|DICT|INTERRES
   118   59  122 1    
   119   60   61 2    
   120   60   62 1    
   121   62   63 1    
   122   62   64 1    
   123   62  123 1    
   124   63  124 1    
   125   63  125 1    
   126   63  126 1    
   127   64   65 am   BACKBONE|DICT|INTERRES
   128   64  127 1    
   129   65   66 2    
@<TRIPOS>SUBSTRUCTURE
     1 UNK         1 GROUP             0       ****    0 ROOT    
