@<TRIPOS>MOLECULE
3R134
127   129    1
SMALL
USER_CHARGES


@<TRIPOS>ATOM
      1 CA         29.5927  -46.2773  -51.1843 C.3       0 UNK        -0.1968 
      2 C          31.0299  -46.1582  -51.6676 C.2       0 UNK         0.4852 
      3 O          31.4460  -46.9454  -52.5180 O.2       0 UNK        -0.5359 
      4 N          31.7847  -45.1897  -51.1258 N.am      1 UNK        -0.4300 
      5 CA         33.1726  -44.8447  -51.4694 C.3       1 UNK         0.0863 
      6 C6         33.2944  -44.1382  -52.8475 C.3       11 UNK        -0.0953 
      7 S7         32.4738  -42.5089  -52.8483 S.3       11 UNK        -0.2369 
      8 C8         33.1962  -41.7427  -54.3348 C.3       11 UNK         0.0226 
      9 C9         32.6961  -42.4225  -55.5991 C.ar      11 UNK        -0.0699 
     10 C10        33.4313  -43.4617  -56.1766 C.ar      11 UNK        -0.0804 
     11 C11        32.9300  -44.1507  -57.2837 C.ar      11 UNK        -0.0871 
     12 C12        31.7174  -43.7524  -57.8520 C.ar      11 UNK        -0.1008 
     13 C13        30.9695  -42.7217  -57.2779 C.ar      11 UNK        -0.0735 
     14 C14        31.4693  -42.0509  -56.1576 C.ar      11 UNK        -0.0945 
     15 C15        29.5914  -42.3851  -57.8301 C.3       11 UNK         0.0169 
     16 S16        28.4575  -43.8095  -57.7146 S.3       11 UNK        -0.2669 
     17 C17        28.3748  -44.0804  -55.9055 C.3       11 UNK        -0.0850 
     18 CA         26.9369  -44.0070  -55.3340 C.3       10 UNK         0.0855 
     19 C          26.3651  -42.5583  -55.3657 C.2       10 UNK         0.5543 
     20 N          25.2949  -42.2813  -56.1008 N.am      10 UNK        -0.7343 
     21 O          26.8992  -41.6745  -54.7005 O.2       10 UNK        -0.5027 
     22 N          26.0805  -45.0392  -55.9355 N.am      10 UNK        -0.4495 
     23 C          24.9334  -45.4959  -55.4212 C.2       10 UNK         0.4903 
     24 O          24.4728  -45.1105  -54.3464 O.2       10 UNK        -0.4860 
     25 CA         24.1728  -46.5857  -56.2011 C.3       9 UNK         0.0227 
     26 CB         22.8311  -46.0570  -56.7481 C.3       9 UNK        -0.1964 
     27 N          24.9591  -47.2708  -57.2395 N.am      9 UNK        -0.4231 
     28 C          25.3716  -46.8128  -58.4331 C.2       9 UNK         0.5014 
     29 O          25.1208  -45.6804  -58.8451 O.2       9 UNK        -0.5270 
     30 CA         26.2386  -47.7505  -59.3003 C.3       8 UNK         0.0284 
     31 CB         27.4147  -46.9939  -59.9454 C.3       8 UNK        -0.1977 
     32 N          26.7721  -48.8772  -58.5304 N.am      8 UNK        -0.4342 
     33 C          26.2234  -50.0997  -58.4618 C.2       8 UNK         0.5039 
     34 O          25.2410  -50.4437  -59.1192 O.2       8 UNK        -0.5547 
     35 CA         26.8440  -51.1019  -57.4659 C.3       7 UNK         0.0281 
     36 CB         27.8094  -52.0518  -58.1920 C.3       7 UNK        -0.1963 
     37 N          27.5479  -50.4606  -56.3509 N.am      7 UNK        -0.4444 
     38 C          26.9778  -49.6525  -55.4438 C.2       7 UNK         0.5104 
     39 O          25.7640  -49.4621  -55.3767 O.2       7 UNK        -0.5100 
     40 CA         27.9104  -48.8653  -54.5029 C.3       6 UNK         0.0396 
     41 CB         27.8717  -49.4574  -53.0868 C.3       6 UNK        -0.1801 
     42 N          29.3007  -48.7821  -54.9683 N.am      6 UNK        -0.4747 
     43 C          29.6979  -48.1925  -56.1088 C.2       6 UNK         0.5012 
     44 O          28.9144  -47.6645  -56.8984 O.2       6 UNK        -0.5003 
     45 CA         31.2017  -48.2266  -56.4541 C.3       5 UNK         0.0782 
     46 C46        31.8450  -46.8634  -56.1186 C.3       11 UNK        -0.0868 
     47 S47        33.6105  -46.7523  -56.5867 S.3       11 UNK        -0.2515 
     48 C48        33.6408  -45.3908  -57.8056 C.3       11 UNK         0.0199 
     49 N          31.9085  -49.3388  -55.8122 N.am      5 UNK        -0.4607 
     50 C          31.7222  -50.6380  -56.0829 C.2       4 UNK         0.5031 
     51 O          30.9231  -51.0531  -56.9220 O.2       4 UNK        -0.5119 
     52 CA         32.5399  -51.6400  -55.2461 C.3       4 UNK         0.0263 
     53 CB         33.8694  -51.9646  -55.9448 C.3       4 UNK        -0.1967 
     54 N          32.8109  -51.1530  -53.8896 N.am      4 UNK        -0.4237 
     55 C          31.8738  -50.9129  -52.9632 C.2       3 UNK         0.4908 
     56 O          30.6855  -51.1905  -53.1154 O.2       3 UNK        -0.5102 
     57 CA         32.3069  -50.1776  -51.6865 C.3       3 UNK         0.0241 
     58 CB         32.7680  -51.1570  -50.5896 C.3       3 UNK        -0.1971 
     59 N          33.2804  -49.1034  -51.9318 N.am      3 UNK        -0.4139 
     60 C          34.5834  -49.1912  -52.2397 C.2       2 UNK         0.5016 
     61 O          35.1684  -50.2637  -52.3953 O.2       2 UNK        -0.5319 
     62 CA         35.3605  -47.8788  -52.4737 C.3       2 UNK         0.0286 
     63 CB         36.1000  -47.9128  -53.8227 C.3       2 UNK        -0.1963 
     64 N          34.5184  -46.6786  -52.4291 N.am      2 UNK        -0.4790 
     65 C          34.1112  -46.0615  -51.3102 C.2       1 UNK         0.5024 
     66 O          34.4290  -46.4300  -50.1785 O.2       1 UNK        -0.4888 
     67 H67        29.4524  -47.2211  -50.6583 H         1 UNK         0.0892 
     68 H68        28.9110  -46.2551  -52.0343 H         1 UNK         0.0892 
     69 H69        29.3198  -45.4662  -50.5097 H         1 UNK         0.0892 
     70 H70        31.3762  -44.6054  -50.4100 H         1 UNK         0.3107 
     71 H71        33.5013  -44.1324  -50.7105 H         1 UNK         0.0773 
     72 H72        32.8590  -44.7473  -53.6417 H         1 UNK         0.0680 
     73 H73        34.3437  -43.9812  -53.1051 H         1 UNK         0.0680 
     74 H74        32.9275  -40.6856  -54.3537 H         1 UNK         0.0650 
     75 H75        34.2852  -41.7811  -54.2787 H         1 UNK         0.0650 
     76 H76        34.3630  -43.7778  -55.7280 H         1 UNK         0.1397 
     77 H77        31.3138  -44.2923  -58.6980 H         1 UNK         0.1363 
     78 H78        30.8875  -41.2656  -55.6943 H         1 UNK         0.1355 
     79 H79        29.6865  -42.0892  -58.8757 H         1 UNK         0.0707 
     80 H80        29.1523  -41.5356  -57.3043 H         1 UNK         0.0707 
     81 H81        29.0210  -43.3727  -55.3837 H         1 UNK         0.1034 
     82 H82        28.8012  -45.0629  -55.6975 H         1 UNK         0.1034 
     83 H83        27.0156  -44.2560  -54.2739 H         1 UNK         0.0482 
     84 H84        24.8648  -43.0013  -56.6589 H         1 UNK         0.3460 
     85 H85        24.9289  -41.3426  -56.1118 H         1 UNK         0.3460 
     86 H86        26.3597  -45.3586  -56.8525 H         1 UNK         0.2989 
     87 H87        23.9363  -47.3600  -55.4699 H         1 UNK         0.0559 
     88 H88        22.2748  -46.8406  -57.2623 H         1 UNK         0.0848 
     89 H89        22.9682  -45.2292  -57.4440 H         1 UNK         0.0848 
     90 H90        22.1994  -45.6914  -55.9376 H         1 UNK         0.0848 
     91 H91        25.2551  -48.2032  -56.9719 H         1 UNK         0.3144 
     92 H92        25.5989  -48.1207  -60.1039 H         1 UNK         0.0727 
     93 H93        28.0247  -47.6572  -60.5586 H         1 UNK         0.0790 
     94 H94        28.0634  -46.5402  -59.1955 H         1 UNK         0.0790 
     95 H95        27.0596  -46.1923  -60.5944 H         1 UNK         0.0790 
     96 H96        27.5707  -48.6597  -57.9392 H         1 UNK         0.3215 
     97 H97        26.0275  -51.6936  -57.0464 H         1 UNK         0.0863 
     98 H98        28.2040  -52.8111  -57.5164 H         1 UNK         0.0808 
     99 H99        28.6558  -51.5148  -58.6225 H         1 UNK         0.0808 
    100 H100       27.3053  -52.5738  -59.0065 H         1 UNK         0.0808 
    101 H101       28.5546  -50.5617  -56.3316 H         1 UNK         0.3118 
    102 H102       27.5281  -47.8434  -54.4519 H         1 UNK         0.0546 
    103 H103       26.8672  -49.3916  -52.6666 H         1 UNK         0.0828 
    104 H104       28.5420  -48.9271  -52.4108 H         1 UNK         0.0828 
    105 H105       28.1536  -50.5106  -53.0829 H         1 UNK         0.0828 
    106 H106       29.9991  -49.2231  -54.3845 H         1 UNK         0.3005 
    107 H107       31.2684  -48.3762  -57.5343 H         1 UNK         0.1257 
    108 H108       31.7730  -46.6564  -55.0508 H         1 UNK         0.0775 
    109 H109       31.2784  -46.0720  -56.6071 H         1 UNK         0.0775 
    110 H110       34.6767  -45.1443  -58.0420 H         1 UNK         0.0840 
    111 H111       33.1868  -45.7386  -58.7348 H         1 UNK         0.0840 
    112 H112       32.5915  -49.0835  -55.1153 H         1 UNK         0.2987 
    113 H113       31.9558  -52.5592  -55.1655 H         1 UNK         0.0785 
    114 H114       34.5049  -51.0824  -56.0353 H         1 UNK         0.0798 
    115 H115       33.6973  -52.3481  -56.9515 H         1 UNK         0.0798 
    116 H116       34.4280  -52.7261  -55.4001 H         1 UNK         0.0798 
    117 H117       33.7722  -50.9304  -53.6483 H         1 UNK         0.3079 
    118 H118       31.4169  -49.6698  -51.3106 H         1 UNK         0.0794 
    119 H119       33.6246  -51.7542  -50.9028 H         1 UNK         0.0786 
    120 H120       31.9684  -51.8535  -50.3341 H         1 UNK         0.0786 
    121 H121       33.0420  -50.6286  -49.6765 H         1 UNK         0.0786 
    122 H122       32.8673  -48.1744  -51.9548 H         1 UNK         0.3032 
    123 H123       36.1082  -47.8106  -51.6801 H         1 UNK         0.1094 
    124 H124       35.4146  -48.0716  -54.6549 H         1 UNK         0.0794 
    125 H125       36.6430  -46.9852  -54.0049 H         1 UNK         0.0794 
    126 H126       36.8312  -48.7220  -53.8483 H         1 UNK         0.0794 
    127 H127       34.1692  -46.3411  -53.3152 H         1 UNK         0.3016 
@<TRIPOS>BOND
     1    1    2 1    
     2    1   67 1    
     3    1   68 1    
     4    1   69 1    
     5    2    3 2    
     6    2    4 am   BACKBONE|DICT|INTERRES
     7    4    5 1    
     8    4   70 1    
     9    5    6 1    
    10    5   65 1    
    11    5   71 1    
    12    6    7 1    
    13    6   72 1    
    14    6   73 1    
    15    7    8 1    
    16    8    9 1    
    17    8   74 1    
    18    8   75 1    
    19    9   10 ar   
    20    9   14 ar   
    21   10   11 ar   
    22   10   76 1    
    23   11   12 ar   
    24   11   48 1    
    25   12   13 ar   
    26   12   77 1    
    27   13   14 ar   
    28   13   15 1    
    29   14   78 1    
    30   15   16 1    
    31   15   79 1    
    32   15   80 1    
    33   16   17 1    
    34   17   18 1    
    35   17   81 1    
    36   17   82 1    
    37   18   19 1    
    38   18   22 1    
    39   18   83 1    
    40   19   20 am   BACKBONE|DICT|INTERRES
    41   19   21 2    
    42   20   84 1    
    43   20   85 1    
    44   22   23 am   BACKBONE|DICT|INTERRES
    45   22   86 1    
    46   23   24 2    
    47   23   25 1    
    48   25   26 1    
    49   25   27 1    
    50   25   87 1    
    51   26   88 1    
    52   26   89 1    
    53   26   90 1    
    54   27   28 am   BACKBONE|DICT|INTERRES
    55   27   91 1    
    56   28   29 2    
    57   28   30 1    
    58   30   31 1    
    59   30   32 1    
    60   30   92 1    
    61   31   93 1    
    62   31   94 1    
    63   31   95 1    
    64   32   33 am   BACKBONE|DICT|INTERRES
    65   32   96 1    
    66   33   34 2    
    67   33   35 1    
    68   35   36 1    
    69   35   37 1    
    70   35   97 1    
    71   36   98 1    
    72   36   99 1    
    73   36  100 1    
    74   37   38 am   BACKBONE|DICT|INTERRES
    75   37  101 1    
    76   38   39 2    
    77   38   40 1    
    78   40   41 1    
    79   40   42 1    
    80   40  102 1    
    81   41  103 1    
    82   41  104 1    
    83   41  105 1    
    84   42   43 am   BACKBONE|DICT|INTERRES
    85   42  106 1    
    86   43   44 2    
    87   43   45 1    
    88   45   46 1    
    89   45   49 1    
    90   45  107 1    
    91   46   47 1    
    92   46  108 1    
    93   46  109 1    
    94   47   48 1    
    95   48  110 1    
    96   48  111 1    
    97   49   50 am   BACKBONE|DICT|INTERRES
    98   49  112 1    
    99   50   51 2    
   100   50   52 1    
   101   52   53 1    
   102   52   54 1    
   103   52  113 1    
   104   53  114 1    
   105   53  115 1    
   106   53  116 1    
   107   54   55 am   BACKBONE|DICT|INTERRES
   108   54  117 1    
   109   55   56 2    
   110   55   57 1    
   111   57   58 1    
   112   57   59 1    
   113   57  118 1    
   114   58  119 1    
   115   58  120 1    
   116   58  121 1    
   117   59   60 am   BACKBONE|DICT|INTERRES
   118   59  122 1    
   119   60   61 2    
   120   60   62 1    
   121   62   63 1    
   122   62   64 1    
   123   62  123 1    
   124   63  124 1    
   125   63  125 1    
   126   63  126 1    
   127   64   65 am   BACKBONE|DICT|INTERRES
   128   64  127 1    
   129   65   66 2    
@<TRIPOS>SUBSTRUCTURE
     1 UNK         1 GROUP             0       ****    0 ROOT    
