@<TRIPOS>MOLECULE
3R134
127   129    1
SMALL
USER_CHARGES


@<TRIPOS>ATOM
      1 CA         33.3787  -42.1168  -53.2863 C.3       0 UNK        -0.1968 
      2 C          34.5817  -42.9980  -53.5894 C.2       0 UNK         0.4852 
      3 O          35.6949  -42.4885  -53.7280 O.2       0 UNK        -0.5359 
      4 N          34.3622  -44.3136  -53.6861 N.am      1 UNK        -0.4300 
      5 CA         35.3700  -45.3158  -54.0366 C.3       1 UNK         0.0863 
      6 C6         35.6251  -45.4398  -55.5660 C.3       11 UNK        -0.0953 
      7 S7         34.2289  -45.6159  -56.7447 S.3       11 UNK        -0.2369 
      8 C8         32.7937  -46.2987  -55.8483 C.3       11 UNK         0.0226 
      9 C9         31.8444  -45.2490  -55.2860 C.ar      11 UNK        -0.0699 
     10 C10        31.3379  -45.3972  -53.9924 C.ar      11 UNK        -0.0804 
     11 C11        30.3705  -44.5160  -53.5023 C.ar      11 UNK        -0.0871 
     12 C12        29.9545  -43.4405  -54.2917 C.ar      11 UNK        -0.1008 
     13 C13        30.4718  -43.2660  -55.5778 C.ar      11 UNK        -0.0735 
     14 C14        31.4074  -44.1786  -56.0728 C.ar      11 UNK        -0.0945 
     15 C15        30.0158  -42.1034  -56.4444 C.3       11 UNK         0.0169 
     16 S16        28.6002  -42.5673  -57.4879 S.3       11 UNK        -0.2669 
     17 C17        27.1893  -42.0866  -56.4284 C.3       11 UNK        -0.0850 
     18 CA         25.8331  -42.6956  -56.8711 C.3       10 UNK         0.0855 
     19 C          25.3790  -42.1690  -58.2670 C.2       10 UNK         0.5543 
     20 N          25.3424  -42.9920  -59.3099 N.am      10 UNK        -0.7343 
     21 O          25.0435  -40.9942  -58.3975 O.2       10 UNK        -0.5027 
     22 N          25.8316  -44.1587  -56.7346 N.am      10 UNK        -0.4495 
     23 C          24.7328  -44.9252  -56.7451 C.2       10 UNK         0.4903 
     24 O          23.5894  -44.4682  -56.7014 O.2       10 UNK        -0.4860 
     25 CA         24.9318  -46.4545  -56.8175 C.3       9 UNK         0.0227 
     26 CB         23.8405  -47.1424  -57.6638 C.3       9 UNK        -0.1964 
     27 N          26.2635  -46.8874  -57.2639 N.am      9 UNK        -0.4231 
     28 C          26.8765  -46.6005  -58.4239 C.2       9 UNK         0.5014 
     29 O          26.4071  -45.8555  -59.2864 O.2       9 UNK        -0.5270 
     30 CA         28.2566  -47.2390  -58.6514 C.3       8 UNK         0.0284 
     31 CB         29.3554  -46.4217  -57.9532 C.3       8 UNK        -0.1977 
     32 N          28.3308  -48.6328  -58.2073 N.am      8 UNK        -0.4342 
     33 C          27.6768  -49.6550  -58.7783 C.2       8 UNK         0.5039 
     34 O          26.9268  -49.5370  -59.7480 O.2       8 UNK        -0.5547 
     35 CA         27.9014  -51.0468  -58.1697 C.3       7 UNK         0.0281 
     36 CB         29.2435  -51.6373  -58.6352 C.3       7 UNK        -0.1963 
     37 N          27.8668  -50.9968  -56.7082 N.am      7 UNK        -0.4444 
     38 C          26.7592  -51.1541  -55.9706 C.2       7 UNK         0.5104 
     39 O          25.6541  -51.4237  -56.4420 O.2       7 UNK        -0.5100 
     40 CA         26.8989  -50.9869  -54.4447 C.3       6 UNK         0.0396 
     41 CB         27.1040  -52.3541  -53.7735 C.3       6 UNK        -0.1801 
     42 N          27.9841  -50.0887  -54.0412 N.am      6 UNK        -0.4747 
     43 C          28.0220  -48.7725  -54.2983 C.2       6 UNK         0.5012 
     44 O          27.1361  -48.1689  -54.9013 O.2       6 UNK        -0.5003 
     45 CA         29.2961  -48.0179  -53.8685 C.3       5 UNK         0.0782 
     46 C46        29.1702  -47.5102  -52.4057 C.3       11 UNK        -0.0868 
     47 S47        28.3268  -45.8981  -52.2668 S.3       11 UNK        -0.2515 
     48 C48        29.7394  -44.7508  -52.1394 C.3       11 UNK         0.0199 
     49 N          30.5303  -48.7960  -54.0722 N.am      5 UNK        -0.4607 
     50 C          30.9038  -49.3981  -55.2144 C.2       4 UNK         0.5031 
     51 O          30.2681  -49.2927  -56.2630 O.2       4 UNK        -0.5119 
     52 CA         32.1501  -50.3094  -55.2015 C.3       4 UNK         0.0263 
     53 CB         33.2074  -49.8657  -56.2270 C.3       4 UNK        -0.1967 
     54 N          32.7773  -50.4613  -53.8866 N.am      4 UNK        -0.4237 
     55 C          32.2462  -51.1411  -52.8606 C.2       3 UNK         0.4908 
     56 O          31.1935  -51.7759  -52.9408 O.2       3 UNK        -0.5102 
     57 CA         32.9774  -51.0773  -51.5061 C.3       3 UNK         0.0241 
     58 CB         33.7550  -52.3808  -51.2606 C.3       3 UNK        -0.1971 
     59 N          33.8855  -49.9369  -51.3162 N.am      3 UNK        -0.4139 
     60 C          33.5716  -48.6363  -51.4176 C.2       2 UNK         0.5016 
     61 O          32.4758  -48.2290  -51.8041 O.2       2 UNK        -0.5319 
     62 CA         34.6469  -47.6088  -51.0093 C.3       2 UNK         0.0286 
     63 CB         36.0254  -48.2279  -50.6772 C.3       2 UNK        -0.1963 
     64 N          34.7984  -46.5228  -51.9870 N.am      2 UNK        -0.4790 
     65 C          35.1567  -46.6396  -53.2752 C.2       1 UNK         0.5024 
     66 O          35.3345  -47.7205  -53.8401 O.2       1 UNK        -0.4888 
     67 H67        33.0046  -41.6651  -54.2048 H         1 UNK         0.0892 
     68 H68        32.5680  -42.6839  -52.8302 H         1 UNK         0.0892 
     69 H69        33.6557  -41.3179  -52.5991 H         1 UNK         0.0892 
     70 H70        33.4167  -44.6622  -53.6030 H         1 UNK         0.3107 
     71 H71        36.3167  -44.9681  -53.6166 H         1 UNK         0.0773 
     72 H72        36.3254  -46.2530  -55.7644 H         1 UNK         0.0680 
     73 H73        36.1586  -44.5431  -55.8850 H         1 UNK         0.0680 
     74 H74        33.1185  -46.9865  -55.0724 H         1 UNK         0.0650 
     75 H75        32.2255  -46.9034  -56.5553 H         1 UNK         0.0650 
     76 H76        31.6536  -46.2340  -53.3843 H         1 UNK         0.1397 
     77 H77        29.2131  -42.7515  -53.9119 H         1 UNK         0.1363 
     78 H78        31.7827  -44.0641  -57.0805 H         1 UNK         0.1355 
     79 H79        30.8357  -41.7854  -57.0902 H         1 UNK         0.0707 
     80 H80        29.7641  -41.2384  -55.8288 H         1 UNK         0.0707 
     81 H81        27.3973  -42.3863  -55.4010 H         1 UNK         0.1034 
     82 H82        27.1253  -40.9969  -56.4097 H         1 UNK         0.1034 
     83 H83        25.0860  -42.3236  -56.1671 H         1 UNK         0.0482 
     84 H84        25.0435  -42.6425  -60.2060 H         1 UNK         0.3460 
     85 H85        25.6477  -43.9552  -59.2180 H         1 UNK         0.3460 
     86 H86        26.7337  -44.6067  -56.7925 H         1 UNK         0.2989 
     87 H87        24.8303  -46.8158  -55.7933 H         1 UNK         0.0559 
     88 H88        23.8457  -46.7858  -58.6944 H         1 UNK         0.0848 
     89 H89        22.8463  -46.9517  -57.2581 H         1 UNK         0.0848 
     90 H90        23.9777  -48.2238  -57.6829 H         1 UNK         0.0848 
     91 H91        26.7534  -47.4721  -56.5893 H         1 UNK         0.3144 
     92 H92        28.4539  -47.2226  -59.7253 H         1 UNK         0.0727 
     93 H93        29.2218  -46.3969  -56.8713 H         1 UNK         0.0790 
     94 H94        29.3566  -45.3898  -58.3053 H         1 UNK         0.0790 
     95 H95        30.3440  -46.8319  -58.1584 H         1 UNK         0.0790 
     96 H96        28.9775  -48.8370  -57.4468 H         1 UNK         0.3215 
     97 H97        27.1062  -51.7029  -58.5313 H         1 UNK         0.0863 
     98 H98        29.3890  -52.6443  -58.2440 H         1 UNK         0.0808 
     99 H99        30.0919  -51.0298  -58.3185 H         1 UNK         0.0808 
    100 H100       29.2807  -51.7045  -59.7233 H         1 UNK         0.0808 
    101 H101       28.7213  -50.7145  -56.2446 H         1 UNK         0.3118 
    102 H102       25.9623  -50.5632  -54.0759 H         1 UNK         0.0546 
    103 H103       26.3011  -53.0438  -54.0379 H         1 UNK         0.0828 
    104 H104       27.1082  -52.2669  -52.6869 H         1 UNK         0.0828 
    105 H105       28.0444  -52.8162  -54.0770 H         1 UNK         0.0828 
    106 H106       28.7699  -50.5076  -53.5612 H         1 UNK         0.3005 
    107 H107       29.3724  -47.1590  -54.5367 H         1 UNK         0.1257 
    108 H108       30.1498  -47.4005  -51.9468 H         1 UNK         0.0775 
    109 H109       28.6517  -48.2333  -51.7727 H         1 UNK         0.0775 
    110 H110       29.3864  -43.8053  -51.7248 H         1 UNK         0.0840 
    111 H111       30.4778  -45.1324  -51.4324 H         1 UNK         0.0840 
    112 H112       31.1363  -48.8849  -53.2632 H         1 UNK         0.2987 
    113 H113       31.7935  -51.2932  -55.5141 H         1 UNK         0.0785 
    114 H114       33.7623  -48.9896  -55.8961 H         1 UNK         0.0798 
    115 H115       32.7567  -49.6273  -57.1916 H         1 UNK         0.0798 
    116 H116       33.9330  -50.6600  -56.4029 H         1 UNK         0.0798 
    117 H117       33.6305  -49.9430  -53.7259 H         1 UNK         0.3079 
    118 H118       32.2036  -50.9947  -50.7401 H         1 UNK         0.0794 
    119 H119       34.5736  -52.5016  -51.9713 H         1 UNK         0.0786 
    120 H120       33.1044  -53.2509  -51.3622 H         1 UNK         0.0786 
    121 H121       34.1745  -52.4113  -50.2547 H         1 UNK         0.0786 
    122 H122       34.8214  -50.1643  -51.0130 H         1 UNK         0.3032 
    123 H123       34.2699  -47.1454  -50.0960 H         1 UNK         0.1094 
    124 H124       36.7353  -47.4571  -50.3763 H         1 UNK         0.0794 
    125 H125       35.9589  -48.9308  -49.8457 H         1 UNK         0.0794 
    126 H126       36.4577  -48.7543  -51.5293 H         1 UNK         0.0794 
    127 H127       34.6499  -45.5904  -51.6256 H         1 UNK         0.3016 
@<TRIPOS>BOND
     1    1    2 1    
     2    1   67 1    
     3    1   68 1    
     4    1   69 1    
     5    2    3 2    
     6    2    4 am   BACKBONE|DICT|INTERRES
     7    4    5 1    
     8    4   70 1    
     9    5    6 1    
    10    5   65 1    
    11    5   71 1    
    12    6    7 1    
    13    6   72 1    
    14    6   73 1    
    15    7    8 1    
    16    8    9 1    
    17    8   74 1    
    18    8   75 1    
    19    9   10 ar   
    20    9   14 ar   
    21   10   11 ar   
    22   10   76 1    
    23   11   12 ar   
    24   11   48 1    
    25   12   13 ar   
    26   12   77 1    
    27   13   14 ar   
    28   13   15 1    
    29   14   78 1    
    30   15   16 1    
    31   15   79 1    
    32   15   80 1    
    33   16   17 1    
    34   17   18 1    
    35   17   81 1    
    36   17   82 1    
    37   18   19 1    
    38   18   22 1    
    39   18   83 1    
    40   19   20 am   BACKBONE|DICT|INTERRES
    41   19   21 2    
    42   20   84 1    
    43   20   85 1    
    44   22   23 am   BACKBONE|DICT|INTERRES
    45   22   86 1    
    46   23   24 2    
    47   23   25 1    
    48   25   26 1    
    49   25   27 1    
    50   25   87 1    
    51   26   88 1    
    52   26   89 1    
    53   26   90 1    
    54   27   28 am   BACKBONE|DICT|INTERRES
    55   27   91 1    
    56   28   29 2    
    57   28   30 1    
    58   30   31 1    
    59   30   32 1    
    60   30   92 1    
    61   31   93 1    
    62   31   94 1    
    63   31   95 1    
    64   32   33 am   BACKBONE|DICT|INTERRES
    65   32   96 1    
    66   33   34 2    
    67   33   35 1    
    68   35   36 1    
    69   35   37 1    
    70   35   97 1    
    71   36   98 1    
    72   36   99 1    
    73   36  100 1    
    74   37   38 am   BACKBONE|DICT|INTERRES
    75   37  101 1    
    76   38   39 2    
    77   38   40 1    
    78   40   41 1    
    79   40   42 1    
    80   40  102 1    
    81   41  103 1    
    82   41  104 1    
    83   41  105 1    
    84   42   43 am   BACKBONE|DICT|INTERRES
    85   42  106 1    
    86   43   44 2    
    87   43   45 1    
    88   45   46 1    
    89   45   49 1    
    90   45  107 1    
    91   46   47 1    
    92   46  108 1    
    93   46  109 1    
    94   47   48 1    
    95   48  110 1    
    96   48  111 1    
    97   49   50 am   BACKBONE|DICT|INTERRES
    98   49  112 1    
    99   50   51 2    
   100   50   52 1    
   101   52   53 1    
   102   52   54 1    
   103   52  113 1    
   104   53  114 1    
   105   53  115 1    
   106   53  116 1    
   107   54   55 am   BACKBONE|DICT|INTERRES
   108   54  117 1    
   109   55   56 2    
   110   55   57 1    
   111   57   58 1    
   112   57   59 1    
   113   57  118 1    
   114   58  119 1    
   115   58  120 1    
   116   58  121 1    
   117   59   60 am   BACKBONE|DICT|INTERRES
   118   59  122 1    
   119   60   61 2    
   120   60   62 1    
   121   62   63 1    
   122   62   64 1    
   123   62  123 1    
   124   63  124 1    
   125   63  125 1    
   126   63  126 1    
   127   64   65 am   BACKBONE|DICT|INTERRES
   128   64  127 1    
   129   65   66 2    
@<TRIPOS>SUBSTRUCTURE
     1 UNK         1 GROUP             0       ****    0 ROOT    
