@<TRIPOS>MOLECULE
3R134
127   129    1
SMALL
USER_CHARGES


@<TRIPOS>ATOM
      1 CA         29.3133  -46.0322  -51.8168 C.3       0 UNK        -0.1968 
      2 C          29.9261  -45.6380  -53.1575 C.2       0 UNK         0.4852 
      3 O          29.3319  -45.9362  -54.1879 O.2       0 UNK        -0.5359 
      4 N          31.0815  -44.9603  -53.2163 N.am      1 UNK        -0.4300 
      5 CA         31.9090  -44.5045  -52.0940 C.3       1 UNK         0.0863 
      6 C6         33.0363  -43.5516  -52.5568 C.3       11 UNK        -0.0953 
      7 S7         32.3754  -41.9849  -53.2177 S.3       11 UNK        -0.2369 
      8 C8         33.2862  -41.8069  -54.7827 C.3       11 UNK         0.0226 
      9 C9         32.6199  -42.5661  -55.9200 C.ar      11 UNK        -0.0699 
     10 C10        33.1123  -43.8064  -56.3336 C.ar      11 UNK        -0.0804 
     11 C11        32.5175  -44.4867  -57.4025 C.ar      11 UNK        -0.0871 
     12 C12        31.4203  -43.9124  -58.0541 C.ar      11 UNK        -0.1008 
     13 C13        30.9250  -42.6644  -57.6626 C.ar      11 UNK        -0.0735 
     14 C14        31.5342  -41.9982  -56.5924 C.ar      11 UNK        -0.0945 
     15 C15        29.7939  -42.0196  -58.4641 C.3       11 UNK         0.0169 
     16 S16        28.6257  -41.0308  -57.4679 S.3       11 UNK        -0.2669 
     17 C17        27.4722  -42.2991  -56.8427 C.3       11 UNK        -0.0850 
     18 CA         27.9120  -42.9510  -55.5000 C.3       10 UNK         0.0855 
     19 C          27.6713  -42.0642  -54.2367 C.2       10 UNK         0.5543 
     20 N          27.4236  -42.6463  -53.0687 N.am      10 UNK        -0.7343 
     21 O          27.7254  -40.8389  -54.2984 O.2       10 UNK        -0.5027 
     22 N          27.4064  -44.3273  -55.3771 N.am      10 UNK        -0.4495 
     23 C          26.1217  -44.6981  -55.3139 C.2       10 UNK         0.4903 
     24 O          25.1697  -43.9192  -55.3873 O.2       10 UNK        -0.4860 
     25 CA         25.8844  -46.2084  -55.1551 C.3       9 UNK         0.0227 
     26 CB         24.4538  -46.5598  -54.6956 C.3       9 UNK        -0.1964 
     27 N          26.2476  -46.9317  -56.3769 N.am      9 UNK        -0.4231 
     28 C          25.6818  -46.8490  -57.5925 C.2       9 UNK         0.5014 
     29 O          24.7149  -46.1381  -57.8677 O.2       9 UNK        -0.5270 
     30 CA         26.2945  -47.7267  -58.6967 C.3       8 UNK         0.0284 
     31 CB         27.4645  -46.9954  -59.3778 C.3       8 UNK        -0.1977 
     32 N          26.7607  -49.0073  -58.1600 N.am      8 UNK        -0.4342 
     33 C          26.0167  -50.1191  -58.0724 C.2       8 UNK         0.5039 
     34 O          24.8838  -50.2242  -58.5442 O.2       8 UNK        -0.5547 
     35 CA         26.6308  -51.3194  -57.3244 C.3       7 UNK         0.0281 
     36 CB         27.4005  -52.2255  -58.2986 C.3       7 UNK        -0.1963 
     37 N          27.5209  -50.9165  -56.2327 N.am      7 UNK        -0.4444 
     38 C          27.1143  -50.3235  -55.0995 C.2       7 UNK         0.5104 
     39 O          25.9310  -50.1790  -54.7937 O.2       7 UNK        -0.5100 
     40 CA         28.2012  -49.7596  -54.1610 C.3       6 UNK         0.0396 
     41 CB         28.3951  -50.6797  -52.9467 C.3       6 UNK        -0.1801 
     42 N          29.5016  -49.5232  -54.7996 N.am      6 UNK        -0.4747 
     43 C          29.7154  -48.7027  -55.8422 C.2       6 UNK         0.5012 
     44 O          28.8163  -48.0804  -56.4056 O.2       6 UNK        -0.5003 
     45 CA         31.1486  -48.5934  -56.3956 C.3       5 UNK         0.0782 
     46 C46        31.8081  -47.2989  -55.8736 C.3       11 UNK        -0.0868 
     47 S47        33.4627  -47.0030  -56.5730 S.3       11 UNK        -0.2515 
     48 C48        33.0829  -45.8143  -57.9024 C.3       11 UNK         0.0199 
     49 N          31.9485  -49.7935  -56.1265 N.am      5 UNK        -0.4607 
     50 C          31.6705  -51.0098  -56.6198 C.2       4 UNK         0.5031 
     51 O          30.7289  -51.2303  -57.3828 O.2       4 UNK        -0.5119 
     52 CA         32.5546  -52.1891  -56.1769 C.3       4 UNK         0.0263 
     53 CB         33.5452  -52.5599  -57.2924 C.3       4 UNK        -0.1967 
     54 N          33.2964  -51.9715  -54.9314 N.am      4 UNK        -0.4237 
     55 C          32.7620  -51.7335  -53.7251 C.2       3 UNK         0.4908 
     56 O          31.5509  -51.6295  -53.5217 O.2       3 UNK        -0.5102 
     57 CA         33.7396  -51.5764  -52.5420 C.3       3 UNK         0.0241 
     58 CB         35.2309  -51.7258  -52.9261 C.3       3 UNK        -0.1971 
     59 N          33.5421  -50.3236  -51.8032 N.am      3 UNK        -0.4139 
     60 C          33.5369  -49.0814  -52.3076 C.2       2 UNK         0.5016 
     61 O          33.6261  -48.8132  -53.5082 O.2       2 UNK        -0.5319 
     62 CA         33.4769  -47.9428  -51.2840 C.3       2 UNK         0.0286 
     63 CB         34.8842  -47.6666  -50.7153 C.3       2 UNK        -0.1963 
     64 N          32.9407  -46.7396  -51.9192 N.am      2 UNK        -0.4790 
     65 C          32.4891  -45.6647  -51.2602 C.2       1 UNK         0.5024 
     66 O          32.4848  -45.5740  -50.0322 O.2       1 UNK        -0.4888 
     67 H67        28.2570  -46.2691  -51.9422 H         1 UNK         0.0892 
     68 H68        29.8053  -46.9193  -51.4193 H         1 UNK         0.0892 
     69 H69        29.3821  -45.2298  -51.0837 H         1 UNK         0.0892 
     70 H70        31.4220  -44.6884  -54.1271 H         1 UNK         0.3107 
     71 H71        31.2614  -43.9338  -51.4254 H         1 UNK         0.0773 
     72 H72        33.6691  -44.0390  -53.3005 H         1 UNK         0.0680 
     73 H73        33.6914  -43.2931  -51.7222 H         1 UNK         0.0680 
     74 H74        34.3211  -42.1266  -54.6506 H         1 UNK         0.0650 
     75 H75        33.3307  -40.7469  -55.0372 H         1 UNK         0.0650 
     76 H76        33.9706  -44.2358  -55.8353 H         1 UNK         0.1397 
     77 H77        30.9696  -44.4239  -58.8940 H         1 UNK         0.1363 
     78 H78        31.1766  -41.0244  -56.2876 H         1 UNK         0.1355 
     79 H79        30.2468  -41.3600  -59.2052 H         1 UNK         0.0707 
     80 H80        29.2399  -42.7721  -59.0273 H         1 UNK         0.0707 
     81 H81        27.3637  -43.0623  -57.6148 H         1 UNK         0.1034 
     82 H82        26.4820  -41.8516  -56.7404 H         1 UNK         0.1034 
     83 H83        28.9938  -43.0779  -55.5373 H         1 UNK         0.0482 
     84 H84        27.3670  -43.6487  -53.0030 H         1 UNK         0.3460 
     85 H85        27.2727  -42.0728  -52.2540 H         1 UNK         0.3460 
     86 H86        28.1212  -45.0351  -55.2105 H         1 UNK         0.2989 
     87 H87        26.5673  -46.5592  -54.3796 H         1 UNK         0.0559 
     88 H88        24.2260  -46.0834  -53.7414 H         1 UNK         0.0848 
     89 H89        24.3371  -47.6351  -54.5588 H         1 UNK         0.0848 
     90 H90        23.6989  -46.2290  -55.4093 H         1 UNK         0.0848 
     91 H91        27.1116  -47.4665  -56.3115 H         1 UNK         0.3144 
     92 H92        25.5251  -47.9064  -59.4508 H         1 UNK         0.0727 
     93 H93        27.8920  -47.5950  -60.1815 H         1 UNK         0.0790 
     94 H94        28.2641  -46.7570  -58.6755 H         1 UNK         0.0790 
     95 H95        27.1299  -46.0551  -59.8181 H         1 UNK         0.0790 
     96 H96        27.6612  -48.9887  -57.6929 H         1 UNK         0.3215 
     97 H97        25.8089  -51.8972  -56.8959 H         1 UNK         0.0863 
     98 H98        27.7826  -53.1146  -57.7967 H         1 UNK         0.0808 
     99 H99        28.2469  -51.7066  -58.7507 H         1 UNK         0.0808 
    100 H100       26.7541  -52.5641  -59.1095 H         1 UNK         0.0808 
    101 H101       28.5157  -51.0047  -56.3972 H         1 UNK         0.3118 
    102 H102       27.8425  -48.7932  -53.8005 H         1 UNK         0.0546 
    103 H103       28.7653  -51.6622  -53.2421 H         1 UNK         0.0828 
    104 H104       27.4543  -50.8311  -52.4156 H         1 UNK         0.0828 
    105 H105       29.1037  -50.2555  -52.2351 H         1 UNK         0.0828 
    106 H106       30.2894  -50.0379  -54.4209 H         1 UNK         0.3005 
    107 H107       31.0531  -48.5065  -57.4802 H         1 UNK         0.1257 
    108 H108       31.1731  -46.4376  -56.0880 H         1 UNK         0.0775 
    109 H109       31.9025  -47.3349  -54.7886 H         1 UNK         0.0775 
    110 H110       33.9979  -45.6125  -58.4606 H         1 UNK         0.0840 
    111 H111       32.3946  -46.2892  -58.6034 H         1 UNK         0.0840 
    112 H112       32.7252  -49.6771  -55.4866 H         1 UNK         0.2987 
    113 H113       31.8893  -53.0395  -56.0135 H         1 UNK         0.0785 
    114 H114       34.1100  -53.4581  -57.0415 H         1 UNK         0.0798 
    115 H115       34.2568  -51.7555  -57.4834 H         1 UNK         0.0798 
    116 H116       33.0223  -52.7610  -58.2287 H         1 UNK         0.0798 
    117 H117       34.3031  -52.0129  -54.9973 H         1 UNK         0.3079 
    118 H118       33.4966  -52.3834  -51.8491 H         1 UNK         0.0794 
    119 H119       35.4324  -52.6961  -53.3824 H         1 UNK         0.0786 
    120 H120       35.8674  -51.6581  -52.0436 H         1 UNK         0.0786 
    121 H121       35.5564  -50.9499  -53.6207 H         1 UNK         0.0786 
    122 H122       33.4301  -50.4301  -50.8046 H         1 UNK         0.3032 
    123 H123       32.8058  -48.2409  -50.4751 H         1 UNK         0.1094 
    124 H124       35.5696  -47.3277  -51.4932 H         1 UNK         0.0794 
    125 H125       34.8633  -46.9065  -49.9345 H         1 UNK         0.0794 
    126 H126       35.3144  -48.5654  -50.2715 H         1 UNK         0.0794 
    127 H127       32.9083  -46.7781  -52.9308 H         1 UNK         0.3016 
@<TRIPOS>BOND
     1    1    2 1    
     2    1   67 1    
     3    1   68 1    
     4    1   69 1    
     5    2    3 2    
     6    2    4 am   BACKBONE|DICT|INTERRES
     7    4    5 1    
     8    4   70 1    
     9    5    6 1    
    10    5   65 1    
    11    5   71 1    
    12    6    7 1    
    13    6   72 1    
    14    6   73 1    
    15    7    8 1    
    16    8    9 1    
    17    8   74 1    
    18    8   75 1    
    19    9   10 ar   
    20    9   14 ar   
    21   10   11 ar   
    22   10   76 1    
    23   11   12 ar   
    24   11   48 1    
    25   12   13 ar   
    26   12   77 1    
    27   13   14 ar   
    28   13   15 1    
    29   14   78 1    
    30   15   16 1    
    31   15   79 1    
    32   15   80 1    
    33   16   17 1    
    34   17   18 1    
    35   17   81 1    
    36   17   82 1    
    37   18   19 1    
    38   18   22 1    
    39   18   83 1    
    40   19   20 am   BACKBONE|DICT|INTERRES
    41   19   21 2    
    42   20   84 1    
    43   20   85 1    
    44   22   23 am   BACKBONE|DICT|INTERRES
    45   22   86 1    
    46   23   24 2    
    47   23   25 1    
    48   25   26 1    
    49   25   27 1    
    50   25   87 1    
    51   26   88 1    
    52   26   89 1    
    53   26   90 1    
    54   27   28 am   BACKBONE|DICT|INTERRES
    55   27   91 1    
    56   28   29 2    
    57   28   30 1    
    58   30   31 1    
    59   30   32 1    
    60   30   92 1    
    61   31   93 1    
    62   31   94 1    
    63   31   95 1    
    64   32   33 am   BACKBONE|DICT|INTERRES
    65   32   96 1    
    66   33   34 2    
    67   33   35 1    
    68   35   36 1    
    69   35   37 1    
    70   35   97 1    
    71   36   98 1    
    72   36   99 1    
    73   36  100 1    
    74   37   38 am   BACKBONE|DICT|INTERRES
    75   37  101 1    
    76   38   39 2    
    77   38   40 1    
    78   40   41 1    
    79   40   42 1    
    80   40  102 1    
    81   41  103 1    
    82   41  104 1    
    83   41  105 1    
    84   42   43 am   BACKBONE|DICT|INTERRES
    85   42  106 1    
    86   43   44 2    
    87   43   45 1    
    88   45   46 1    
    89   45   49 1    
    90   45  107 1    
    91   46   47 1    
    92   46  108 1    
    93   46  109 1    
    94   47   48 1    
    95   48  110 1    
    96   48  111 1    
    97   49   50 am   BACKBONE|DICT|INTERRES
    98   49  112 1    
    99   50   51 2    
   100   50   52 1    
   101   52   53 1    
   102   52   54 1    
   103   52  113 1    
   104   53  114 1    
   105   53  115 1    
   106   53  116 1    
   107   54   55 am   BACKBONE|DICT|INTERRES
   108   54  117 1    
   109   55   56 2    
   110   55   57 1    
   111   57   58 1    
   112   57   59 1    
   113   57  118 1    
   114   58  119 1    
   115   58  120 1    
   116   58  121 1    
   117   59   60 am   BACKBONE|DICT|INTERRES
   118   59  122 1    
   119   60   61 2    
   120   60   62 1    
   121   62   63 1    
   122   62   64 1    
   123   62  123 1    
   124   63  124 1    
   125   63  125 1    
   126   63  126 1    
   127   64   65 am   BACKBONE|DICT|INTERRES
   128   64  127 1    
   129   65   66 2    
@<TRIPOS>SUBSTRUCTURE
     1 UNK         1 GROUP             0       ****    0 ROOT    
