@<TRIPOS>MOLECULE
3R134
127   129    1
SMALL
USER_CHARGES


@<TRIPOS>ATOM
      1 CA         37.7267  -43.3972  -52.3684 C.3       0 UNK        -0.1968 
      2 C          37.1677  -44.6719  -52.9823 C.2       0 UNK         0.4852 
      3 O          37.7396  -45.7468  -52.7911 O.2       0 UNK        -0.5359 
      4 N          36.0485  -44.5673  -53.7104 N.am      1 UNK        -0.4300 
      5 CA         35.3429  -45.6668  -54.3802 C.3       1 UNK         0.0863 
      6 C6         34.5579  -45.1633  -55.6230 C.3       11 UNK        -0.0953 
      7 S7         33.3976  -43.7957  -55.2729 S.3       11 UNK        -0.2369 
      8 C8         31.8126  -44.5120  -55.8069 C.3       11 UNK         0.0226 
      9 C9         30.6566  -43.8379  -55.0885 C.ar      11 UNK        -0.0699 
     10 C10        30.0642  -44.4613  -53.9884 C.ar      11 UNK        -0.0804 
     11 C11        29.0204  -43.8416  -53.2954 C.ar      11 UNK        -0.0871 
     12 C12        28.5727  -42.5837  -53.7148 C.ar      11 UNK        -0.1008 
     13 C13        29.1775  -41.9362  -54.7974 C.ar      11 UNK        -0.0735 
     14 C14        30.2111  -42.5757  -55.4894 C.ar      11 UNK        -0.0945 
     15 C15        28.7696  -40.5142  -55.1618 C.3       11 UNK         0.0169 
     16 S16        27.3220  -40.4499  -56.2620 S.3       11 UNK        -0.2669 
     17 C17        28.0368  -40.9986  -57.8515 C.3       11 UNK        -0.0850 
     18 CA         27.3275  -42.2494  -58.4306 C.3       10 UNK         0.0855 
     19 C          27.9344  -42.6563  -59.8074 C.2       10 UNK         0.5543 
     20 N          28.4103  -43.8815  -60.0023 N.am      10 UNK        -0.7343 
     21 O          27.9686  -41.8390  -60.7241 O.2       10 UNK        -0.5027 
     22 N          27.2500  -43.3483  -57.4548 N.am      10 UNK        -0.4495 
     23 C          26.3225  -44.3082  -57.4910 C.2       10 UNK         0.4903 
     24 O          25.3783  -44.3302  -58.2843 O.2       10 UNK        -0.4860 
     25 CA         26.4851  -45.4587  -56.4854 C.3       9 UNK         0.0227 
     26 CB         25.3687  -45.3964  -55.4306 C.3       9 UNK        -0.1964 
     27 N          26.4446  -46.7517  -57.1771 N.am      9 UNK        -0.4231 
     28 C          27.3051  -47.1209  -58.1363 C.2       9 UNK         0.5014 
     29 O          28.3323  -46.4945  -58.4099 O.2       9 UNK        -0.5270 
     30 CA         26.9430  -48.3811  -58.9317 C.3       8 UNK         0.0284 
     31 CB         27.5421  -48.3597  -60.3544 C.3       8 UNK        -0.1977 
     32 N          27.3983  -49.5634  -58.2083 N.am      8 UNK        -0.4342 
     33 C          26.9453  -50.8073  -58.4094 C.2       8 UNK         0.5039 
     34 O          26.0453  -51.0911  -59.2015 O.2       8 UNK        -0.5547 
     35 CA         27.6019  -51.9271  -57.5901 C.3       7 UNK         0.0281 
     36 CB         29.0325  -52.2093  -58.0817 C.3       7 UNK        -0.1963 
     37 N          27.6221  -51.5971  -56.1666 N.am      7 UNK        -0.4444 
     38 C          26.6221  -51.8560  -55.3132 C.2       7 UNK         0.5104 
     39 O          25.5891  -52.4486  -55.6266 O.2       7 UNK        -0.5100 
     40 CA         26.8009  -51.3868  -53.8577 C.3       6 UNK         0.0396 
     41 CB         27.2832  -52.5489  -52.9753 C.3       6 UNK        -0.1801 
     42 N          27.7299  -50.2610  -53.7288 N.am      6 UNK        -0.4747 
     43 C          27.4310  -48.9992  -54.0790 C.2       6 UNK         0.5012 
     44 O          26.3307  -48.6646  -54.5163 O.2       6 UNK        -0.5003 
     45 CA         28.5584  -47.9465  -53.9540 C.3       5 UNK         0.0782 
     46 C46        28.5449  -47.2897  -52.5485 C.3       11 UNK        -0.0868 
     47 S47        27.3555  -45.9098  -52.4321 S.3       11 UNK        -0.2515 
     48 C48        28.4285  -44.4891  -52.0495 C.3       11 UNK         0.0199 
     49 N          29.8836  -48.4925  -54.2729 N.am      5 UNK        -0.4607 
     50 C          30.2206  -49.1040  -55.4174 C.2       4 UNK         0.5031 
     51 O          29.4708  -49.1868  -56.3882 O.2       4 UNK        -0.5119 
     52 CA         31.5873  -49.8087  -55.4769 C.3       4 UNK         0.0263 
     53 CB         32.5903  -48.9606  -56.2724 C.3       4 UNK        -0.1967 
     54 N          32.1599  -50.1409  -54.1675 N.am      4 UNK        -0.4237 
     55 C          31.6038  -50.9150  -53.2246 C.2       3 UNK         0.4908 
     56 O          30.5028  -51.4509  -53.3532 O.2       3 UNK        -0.5102 
     57 CA         32.3601  -51.0780  -51.8906 C.3       3 UNK         0.0241 
     58 CB         33.2717  -52.3205  -51.9193 C.3       3 UNK        -0.1971 
     59 N          33.0852  -49.8752  -51.4416 N.am      3 UNK        -0.4139 
     60 C          34.1490  -49.2844  -52.0046 C.2       2 UNK         0.5016 
     61 O          34.7301  -49.7193  -53.0025 O.2       2 UNK        -0.5319 
     62 CA         34.6214  -47.9679  -51.3639 C.3       2 UNK         0.0286 
     63 CB         35.6840  -48.2417  -50.2878 C.3       2 UNK        -0.1963 
     64 N          35.1786  -47.0506  -52.3610 N.am      2 UNK        -0.4790 
     65 C          34.5050  -46.5073  -53.3846 C.2       1 UNK         0.5024 
     66 O          33.2907  -46.6514  -53.5415 O.2       1 UNK        -0.4888 
     67 H67        38.7409  -43.2223  -52.7265 H         1 UNK         0.0892 
     68 H68        37.1234  -42.5249  -52.6196 H         1 UNK         0.0892 
     69 H69        37.7587  -43.4865  -51.2829 H         1 UNK         0.0892 
     70 H70        35.6029  -43.6653  -53.8076 H         1 UNK         0.3107 
     71 H71        36.0996  -46.3545  -54.7646 H         1 UNK         0.0773 
     72 H72        34.0392  -45.9892  -56.1111 H         1 UNK         0.0680 
     73 H73        35.2677  -44.7967  -56.3660 H         1 UNK         0.0680 
     74 H74        31.7054  -44.3972  -56.8865 H         1 UNK         0.0650 
     75 H75        31.7982  -45.5843  -55.6057 H         1 UNK         0.0650 
     76 H76        30.4427  -45.4184  -53.6608 H         1 UNK         0.1397 
     77 H77        27.7810  -42.0848  -53.1721 H         1 UNK         0.1363 
     78 H78        30.7032  -42.0778  -56.3132 H         1 UNK         0.1355 
     79 H79        28.5344  -39.9622  -54.2505 H         1 UNK         0.0707 
     80 H80        29.6030  -39.9822  -55.6237 H         1 UNK         0.0707 
     81 H81        29.1055  -41.1827  -57.7433 H         1 UNK         0.1034 
     82 H82        27.9540  -40.1643  -58.5507 H         1 UNK         0.1034 
     83 H83        26.3029  -41.9433  -58.6513 H         1 UNK         0.0482 
     84 H84        28.7958  -44.1175  -60.9024 H         1 UNK         0.3460 
     85 H85        28.3736  -44.5857  -59.2745 H         1 UNK         0.3460 
     86 H86        27.9883  -43.3894  -56.7666 H         1 UNK         0.2989 
     87 H87        27.4498  -45.3687  -55.9818 H         1 UNK         0.0559 
     88 H88        24.3778  -45.4464  -55.8839 H         1 UNK         0.0848 
     89 H89        25.4231  -44.4649  -54.8653 H         1 UNK         0.0848 
     90 H90        25.4461  -46.2112  -54.7128 H         1 UNK         0.0848 
     91 H91        25.6404  -47.3350  -56.9950 H         1 UNK         0.3144 
     92 H92        25.8549  -48.4148  -59.0205 H         1 UNK         0.0727 
     93 H93        28.6317  -48.4044  -60.3323 H         1 UNK         0.0790 
     94 H94        27.2626  -47.4463  -60.8813 H         1 UNK         0.0790 
     95 H95        27.1854  -49.1982  -60.9525 H         1 UNK         0.0790 
     96 H96        28.1474  -49.4055  -57.5306 H         1 UNK         0.3215 
     97 H97        27.0171  -52.8379  -57.7388 H         1 UNK         0.0863 
     98 H98        29.6836  -51.3410  -57.9794 H         1 UNK         0.0808 
     99 H99        29.0306  -52.4894  -59.1360 H         1 UNK         0.0808 
    100 H100       29.4849  -53.0331  -57.5294 H         1 UNK         0.0808 
    101 H101       28.4061  -51.0520  -55.8345 H         1 UNK         0.3118 
    102 H102       25.8226  -51.0694  -53.4901 H         1 UNK         0.0546 
    103 H103       27.3843  -52.2432  -51.9339 H         1 UNK         0.0828 
    104 H104       28.2472  -52.9361  -53.3070 H         1 UNK         0.0828 
    105 H105       26.5745  -53.3777  -53.0020 H         1 UNK         0.0828 
    106 H106       28.6724  -50.4844  -53.4237 H         1 UNK         0.3005 
    107 H107       28.3626  -47.1807  -54.7072 H         1 UNK         0.1257 
    108 H108       29.5358  -46.9183  -52.2883 H         1 UNK         0.0775 
    109 H109       28.3117  -48.0174  -51.7682 H         1 UNK         0.0775 
    110 H110       27.8346  -43.7593  -51.4973 H         1 UNK         0.0840 
    111 H111       29.2273  -44.7902  -51.3703 H         1 UNK         0.0840 
    112 H112       30.5728  -48.4674  -53.5363 H         1 UNK         0.2987 
    113 H113       31.4377  -50.7499  -56.0096 H         1 UNK         0.0785 
    114 H114       33.5429  -49.4769  -56.3925 H         1 UNK         0.0798 
    115 H115       32.2115  -48.7412  -57.2718 H         1 UNK         0.0798 
    116 H116       32.7835  -48.0078  -55.7814 H         1 UNK         0.0798 
    117 H117       33.0904  -49.7819  -53.9686 H         1 UNK         0.3079 
    118 H118       31.5975  -51.2563  -51.1306 H         1 UNK         0.0794 
    119 H119       33.7624  -52.4744  -50.9583 H         1 UNK         0.0786 
    120 H120       34.0459  -52.2454  -52.6833 H         1 UNK         0.0786 
    121 H121       32.6933  -53.2198  -52.1355 H         1 UNK         0.0786 
    122 H122       32.6824  -49.4257  -50.6303 H         1 UNK         0.3032 
    123 H123       33.7643  -47.4741  -50.9005 H         1 UNK         0.1094 
    124 H124       35.2952  -48.9003  -49.5099 H         1 UNK         0.0794 
    125 H125       36.5686  -48.7215  -50.7093 H         1 UNK         0.0794 
    126 H126       36.0029  -47.3198  -49.8008 H         1 UNK         0.0794 
    127 H127       36.1779  -46.8723  -52.3203 H         1 UNK         0.3016 
@<TRIPOS>BOND
     1    1    2 1    
     2    1   67 1    
     3    1   68 1    
     4    1   69 1    
     5    2    3 2    
     6    2    4 am   BACKBONE|DICT|INTERRES
     7    4    5 1    
     8    4   70 1    
     9    5    6 1    
    10    5   65 1    
    11    5   71 1    
    12    6    7 1    
    13    6   72 1    
    14    6   73 1    
    15    7    8 1    
    16    8    9 1    
    17    8   74 1    
    18    8   75 1    
    19    9   10 ar   
    20    9   14 ar   
    21   10   11 ar   
    22   10   76 1    
    23   11   12 ar   
    24   11   48 1    
    25   12   13 ar   
    26   12   77 1    
    27   13   14 ar   
    28   13   15 1    
    29   14   78 1    
    30   15   16 1    
    31   15   79 1    
    32   15   80 1    
    33   16   17 1    
    34   17   18 1    
    35   17   81 1    
    36   17   82 1    
    37   18   19 1    
    38   18   22 1    
    39   18   83 1    
    40   19   20 am   BACKBONE|DICT|INTERRES
    41   19   21 2    
    42   20   84 1    
    43   20   85 1    
    44   22   23 am   BACKBONE|DICT|INTERRES
    45   22   86 1    
    46   23   24 2    
    47   23   25 1    
    48   25   26 1    
    49   25   27 1    
    50   25   87 1    
    51   26   88 1    
    52   26   89 1    
    53   26   90 1    
    54   27   28 am   BACKBONE|DICT|INTERRES
    55   27   91 1    
    56   28   29 2    
    57   28   30 1    
    58   30   31 1    
    59   30   32 1    
    60   30   92 1    
    61   31   93 1    
    62   31   94 1    
    63   31   95 1    
    64   32   33 am   BACKBONE|DICT|INTERRES
    65   32   96 1    
    66   33   34 2    
    67   33   35 1    
    68   35   36 1    
    69   35   37 1    
    70   35   97 1    
    71   36   98 1    
    72   36   99 1    
    73   36  100 1    
    74   37   38 am   BACKBONE|DICT|INTERRES
    75   37  101 1    
    76   38   39 2    
    77   38   40 1    
    78   40   41 1    
    79   40   42 1    
    80   40  102 1    
    81   41  103 1    
    82   41  104 1    
    83   41  105 1    
    84   42   43 am   BACKBONE|DICT|INTERRES
    85   42  106 1    
    86   43   44 2    
    87   43   45 1    
    88   45   46 1    
    89   45   49 1    
    90   45  107 1    
    91   46   47 1    
    92   46  108 1    
    93   46  109 1    
    94   47   48 1    
    95   48  110 1    
    96   48  111 1    
    97   49   50 am   BACKBONE|DICT|INTERRES
    98   49  112 1    
    99   50   51 2    
   100   50   52 1    
   101   52   53 1    
   102   52   54 1    
   103   52  113 1    
   104   53  114 1    
   105   53  115 1    
   106   53  116 1    
   107   54   55 am   BACKBONE|DICT|INTERRES
   108   54  117 1    
   109   55   56 2    
   110   55   57 1    
   111   57   58 1    
   112   57   59 1    
   113   57  118 1    
   114   58  119 1    
   115   58  120 1    
   116   58  121 1    
   117   59   60 am   BACKBONE|DICT|INTERRES
   118   59  122 1    
   119   60   61 2    
   120   60   62 1    
   121   62   63 1    
   122   62   64 1    
   123   62  123 1    
   124   63  124 1    
   125   63  125 1    
   126   63  126 1    
   127   64   65 am   BACKBONE|DICT|INTERRES
   128   64  127 1    
   129   65   66 2    
@<TRIPOS>SUBSTRUCTURE
     1 UNK         1 GROUP             0       ****    0 ROOT    
