@<TRIPOS>MOLECULE
3R134
127   129    1
SMALL
USER_CHARGES


@<TRIPOS>ATOM
      1 CA         35.7575  -46.0847  -52.5334 C.3       0 UNK        -0.1968 
      2 C          34.3148  -46.2042  -52.9997 C.2       0 UNK         0.4852 
      3 O          34.0733  -46.6273  -54.1300 O.2       0 UNK        -0.5359 
      4 N          33.3561  -45.8268  -52.1414 N.am      1 UNK        -0.4300 
      5 CA         31.9171  -45.8965  -52.4235 C.3       1 UNK         0.0863 
      6 C6         31.0614  -45.0842  -51.4208 C.3       11 UNK        -0.0953 
      7 S7         31.6045  -43.3499  -51.2387 S.3       11 UNK        -0.2369 
      8 C8         30.3782  -42.4289  -52.2374 C.3       11 UNK         0.0226 
      9 C9         30.5007  -42.5863  -53.7556 C.ar      11 UNK        -0.0699 
     10 C10        31.6947  -42.9777  -54.3726 C.ar      11 UNK        -0.0804 
     11 C11        31.7655  -43.1245  -55.7582 C.ar      11 UNK        -0.0871 
     12 C12        30.6624  -42.7831  -56.5423 C.ar      11 UNK        -0.1008 
     13 C13        29.4423  -42.4389  -55.9507 C.ar      11 UNK        -0.0735 
     14 C14        29.3821  -42.3265  -54.5565 C.ar      11 UNK        -0.0945 
     15 C15        28.1512  -42.2393  -56.7522 C.3       11 UNK         0.0169 
     16 S16        28.2772  -42.2811  -58.5784 S.3       11 UNK        -0.2669 
     17 C17        28.7276  -44.0119  -58.9696 C.3       11 UNK        -0.0850 
     18 CA         27.5108  -44.9157  -59.2858 C.3       10 UNK         0.0855 
     19 C          27.9326  -46.1136  -60.1847 C.2       10 UNK         0.5543 
     20 N          28.0334  -47.3306  -59.6629 N.am      10 UNK        -0.7343 
     21 O          28.1654  -45.9325  -61.3768 O.2       10 UNK        -0.5027 
     22 N          26.8364  -45.3433  -58.0513 N.am      10 UNK        -0.4495 
     23 C          25.5362  -45.6475  -57.9631 C.2       10 UNK         0.4903 
     24 O          24.7294  -45.4729  -58.8771 O.2       10 UNK        -0.4860 
     25 CA         25.0438  -46.2754  -56.6469 C.3       9 UNK         0.0227 
     26 CB         24.6117  -47.7320  -56.8770 C.3       9 UNK        -0.1964 
     27 N          26.0494  -46.2382  -55.5805 N.am      9 UNK        -0.4231 
     28 C          26.2435  -45.1976  -54.7593 C.2       9 UNK         0.5014 
     29 O          25.5840  -44.1585  -54.8205 O.2       9 UNK        -0.5270 
     30 CA         27.3693  -45.3155  -53.7108 C.3       8 UNK         0.0284 
     31 CB         27.0375  -44.5245  -52.4252 C.3       8 UNK        -0.1977 
     32 N          27.7579  -46.6964  -53.3947 N.am      8 UNK        -0.4342 
     33 C          27.0099  -47.6413  -52.8062 C.2       8 UNK         0.5039 
     34 O          25.8440  -47.4823  -52.4405 O.2       8 UNK        -0.5547 
     35 CA         27.7094  -48.9973  -52.6136 C.3       7 UNK         0.0281 
     36 CB         26.8068  -50.0749  -51.9742 C.3       7 UNK        -0.1963 
     37 N          28.3217  -49.4737  -53.8627 N.am      7 UNK        -0.4444 
     38 C          27.6848  -49.8375  -54.9850 C.2       7 UNK         0.5104 
     39 O          26.4609  -49.8337  -55.1140 O.2       7 UNK        -0.5100 
     40 CA         28.5784  -50.2852  -56.1580 C.3       6 UNK         0.0396 
     41 CB         27.7942  -50.4807  -57.4720 C.3       6 UNK        -0.1801 
     42 N          29.7469  -49.4286  -56.3911 N.am      6 UNK        -0.4747 
     43 C          29.7644  -48.1117  -56.6591 C.2       6 UNK         0.5012 
     44 O          28.7551  -47.4003  -56.6427 O.2       6 UNK        -0.5003 
     45 CA         31.1267  -47.5040  -57.0692 C.3       5 UNK         0.0782 
     46 C46        31.3608  -46.0860  -56.5009 C.3       11 UNK        -0.0868 
     47 S47        32.6040  -45.1642  -57.4778 S.3       11 UNK        -0.2515 
     48 C48        33.0038  -43.7380  -56.4003 C.3       11 UNK         0.0199 
     49 N          32.2326  -48.3973  -56.7098 N.am      5 UNK        -0.4607 
     50 C          32.9792  -49.0883  -57.5768 C.2       4 UNK         0.5031 
     51 O          32.8450  -49.0404  -58.7995 O.2       4 UNK        -0.5119 
     52 CA         34.0356  -50.0242  -56.9682 C.3       4 UNK         0.0263 
     53 CB         35.3220  -49.2491  -56.6412 C.3       4 UNK        -0.1967 
     54 N          33.5716  -50.7281  -55.7677 N.am      4 UNK        -0.4237 
     55 C          32.5623  -51.6072  -55.7196 C.2       3 UNK         0.4908 
     56 O          31.8387  -51.8716  -56.6791 O.2       3 UNK        -0.5102 
     57 CA         32.3036  -52.3085  -54.3747 C.3       3 UNK         0.0241 
     58 CB         33.5278  -53.1245  -53.9096 C.3       3 UNK        -0.1971 
     59 N          31.8141  -51.4165  -53.3150 N.am      3 UNK        -0.4139 
     60 C          32.4431  -50.3755  -52.7518 C.2       2 UNK         0.5016 
     61 O          33.5785  -50.0002  -53.0540 O.2       2 UNK        -0.5319 
     62 CA         31.6836  -49.6581  -51.6262 C.3       2 UNK         0.0286 
     63 CB         32.0936  -50.2250  -50.2579 C.3       2 UNK        -0.1963 
     64 N          31.9502  -48.2211  -51.6449 N.am      2 UNK        -0.4790 
     65 C          31.4175  -47.3514  -52.5139 C.2       1 UNK         0.5024 
     66 O          30.5726  -47.6550  -53.3588 O.2       1 UNK        -0.4888 
     67 H67        36.3140  -45.4291  -53.2026 H         1 UNK         0.0892 
     68 H68        35.8290  -45.6800  -51.5240 H         1 UNK         0.0892 
     69 H69        36.2338  -47.0648  -52.5418 H         1 UNK         0.0892 
     70 H70        33.6095  -45.4541  -51.2373 H         1 UNK         0.3107 
     71 H71        31.7592  -45.4580  -53.4056 H         1 UNK         0.0773 
     72 H72        31.0930  -45.5433  -50.4309 H         1 UNK         0.0680 
     73 H73        30.0158  -45.0974  -51.7269 H         1 UNK         0.0680 
     74 H74        29.3787  -42.7157  -51.9092 H         1 UNK         0.0650 
     75 H75        30.4829  -41.3692  -52.0024 H         1 UNK         0.0650 
     76 H76        32.5668  -43.2068  -53.7773 H         1 UNK         0.1397 
     77 H77        30.7560  -42.8687  -57.6136 H         1 UNK         0.1363 
     78 H78        28.4475  -42.0468  -54.0893 H         1 UNK         0.1355 
     79 H79        27.7211  -41.2759  -56.4750 H         1 UNK         0.0707 
     80 H80        27.4274  -42.9935  -56.4456 H         1 UNK         0.0707 
     81 H81        29.3141  -44.4573  -58.1691 H         1 UNK         0.1034 
     82 H82        29.4019  -43.9550  -59.8270 H         1 UNK         0.1034 
     83 H83        26.8083  -44.3304  -59.8825 H         1 UNK         0.0482 
     84 H84        28.2945  -48.1008  -60.2572 H         1 UNK         0.3460 
     85 H85        27.8874  -47.4714  -58.6741 H         1 UNK         0.3460 
     86 H86        27.4343  -45.5812  -57.2722 H         1 UNK         0.2989 
     87 H87        24.1636  -45.7139  -56.3270 H         1 UNK         0.0559 
     88 H88        23.8111  -47.7923  -57.6153 H         1 UNK         0.0848 
     89 H89        24.2395  -48.1861  -55.9583 H         1 UNK         0.0848 
     90 H90        25.4360  -48.3441  -57.2412 H         1 UNK         0.0848 
     91 H91        26.6510  -47.0469  -55.4875 H         1 UNK         0.3144 
     92 H92        28.2519  -44.8637  -54.1639 H         1 UNK         0.0727 
     93 H93        27.7976  -44.6540  -51.6573 H         1 UNK         0.0790 
     94 H94        26.0837  -44.8356  -51.9980 H         1 UNK         0.0790 
     95 H95        26.9619  -43.4564  -52.6309 H         1 UNK         0.0790 
     96 H96        28.7050  -46.9581  -53.6539 H         1 UNK         0.3215 
     97 H97        28.5235  -48.8099  -51.9134 H         1 UNK         0.0863 
     98 H98        27.3436  -51.0135  -51.8380 H         1 UNK         0.0808 
     99 H99        25.9210  -50.2783  -52.5764 H         1 UNK         0.0808 
    100 H100       26.4591  -49.7547  -50.9913 H         1 UNK         0.0808 
    101 H101       29.3288  -49.3872  -53.9114 H         1 UNK         0.3118 
    102 H102       28.9745  -51.2605  -55.8713 H         1 UNK         0.0546 
    103 H103       27.3624  -49.5470  -57.8290 H         1 UNK         0.0828 
    104 H104       26.9756  -51.1894  -57.3410 H         1 UNK         0.0828 
    105 H105       28.4361  -50.8744  -58.2600 H         1 UNK         0.0828 
    106 H106       30.6270  -49.9226  -56.4706 H         1 UNK         0.3005 
    107 H107       31.0579  -47.4154  -58.1560 H         1 UNK         0.1257 
    108 H108       30.4397  -45.5051  -56.4857 H         1 UNK         0.0775 
    109 H109       31.6968  -46.1467  -55.4688 H         1 UNK         0.0775 
    110 H110       33.7061  -44.0767  -55.6367 H         1 UNK         0.0840 
    111 H111       33.5225  -42.9783  -56.9861 H         1 UNK         0.0840 
    112 H112       32.4460  -48.4678  -55.7240 H         1 UNK         0.2987 
    113 H113       34.2745  -50.7800  -57.7193 H         1 UNK         0.0785 
    114 H114       36.1132  -49.9178  -56.3021 H         1 UNK         0.0798 
    115 H115       35.1563  -48.5032  -55.8624 H         1 UNK         0.0798 
    116 H116       35.6963  -48.7239  -57.5210 H         1 UNK         0.0798 
    117 H117       34.0216  -50.4958  -54.8858 H         1 UNK         0.3079 
    118 H118       31.4972  -53.0222  -54.5525 H         1 UNK         0.0794 
    119 H119       33.8487  -53.8210  -54.6854 H         1 UNK         0.0786 
    120 H120       33.2931  -53.7149  -53.0238 H         1 UNK         0.0786 
    121 H121       34.3830  -52.4926  -53.6689 H         1 UNK         0.0786 
    122 H122       30.8916  -51.6471  -52.9728 H         1 UNK         0.3032 
    123 H123       30.6130  -49.8193  -51.7586 H         1 UNK         0.1094 
    124 H124       31.5464  -49.7424  -49.4477 H         1 UNK         0.0794 
    125 H125       31.8833  -51.2938  -50.1972 H         1 UNK         0.0794 
    126 H126       33.1599  -50.0925  -50.0687 H         1 UNK         0.0794 
    127 H127       32.6800  -47.8918  -51.0302 H         1 UNK         0.3016 
@<TRIPOS>BOND
     1    1    2 1    
     2    1   67 1    
     3    1   68 1    
     4    1   69 1    
     5    2    3 2    
     6    2    4 am   BACKBONE|DICT|INTERRES
     7    4    5 1    
     8    4   70 1    
     9    5    6 1    
    10    5   65 1    
    11    5   71 1    
    12    6    7 1    
    13    6   72 1    
    14    6   73 1    
    15    7    8 1    
    16    8    9 1    
    17    8   74 1    
    18    8   75 1    
    19    9   10 ar   
    20    9   14 ar   
    21   10   11 ar   
    22   10   76 1    
    23   11   12 ar   
    24   11   48 1    
    25   12   13 ar   
    26   12   77 1    
    27   13   14 ar   
    28   13   15 1    
    29   14   78 1    
    30   15   16 1    
    31   15   79 1    
    32   15   80 1    
    33   16   17 1    
    34   17   18 1    
    35   17   81 1    
    36   17   82 1    
    37   18   19 1    
    38   18   22 1    
    39   18   83 1    
    40   19   20 am   BACKBONE|DICT|INTERRES
    41   19   21 2    
    42   20   84 1    
    43   20   85 1    
    44   22   23 am   BACKBONE|DICT|INTERRES
    45   22   86 1    
    46   23   24 2    
    47   23   25 1    
    48   25   26 1    
    49   25   27 1    
    50   25   87 1    
    51   26   88 1    
    52   26   89 1    
    53   26   90 1    
    54   27   28 am   BACKBONE|DICT|INTERRES
    55   27   91 1    
    56   28   29 2    
    57   28   30 1    
    58   30   31 1    
    59   30   32 1    
    60   30   92 1    
    61   31   93 1    
    62   31   94 1    
    63   31   95 1    
    64   32   33 am   BACKBONE|DICT|INTERRES
    65   32   96 1    
    66   33   34 2    
    67   33   35 1    
    68   35   36 1    
    69   35   37 1    
    70   35   97 1    
    71   36   98 1    
    72   36   99 1    
    73   36  100 1    
    74   37   38 am   BACKBONE|DICT|INTERRES
    75   37  101 1    
    76   38   39 2    
    77   38   40 1    
    78   40   41 1    
    79   40   42 1    
    80   40  102 1    
    81   41  103 1    
    82   41  104 1    
    83   41  105 1    
    84   42   43 am   BACKBONE|DICT|INTERRES
    85   42  106 1    
    86   43   44 2    
    87   43   45 1    
    88   45   46 1    
    89   45   49 1    
    90   45  107 1    
    91   46   47 1    
    92   46  108 1    
    93   46  109 1    
    94   47   48 1    
    95   48  110 1    
    96   48  111 1    
    97   49   50 am   BACKBONE|DICT|INTERRES
    98   49  112 1    
    99   50   51 2    
   100   50   52 1    
   101   52   53 1    
   102   52   54 1    
   103   52  113 1    
   104   53  114 1    
   105   53  115 1    
   106   53  116 1    
   107   54   55 am   BACKBONE|DICT|INTERRES
   108   54  117 1    
   109   55   56 2    
   110   55   57 1    
   111   57   58 1    
   112   57   59 1    
   113   57  118 1    
   114   58  119 1    
   115   58  120 1    
   116   58  121 1    
   117   59   60 am   BACKBONE|DICT|INTERRES
   118   59  122 1    
   119   60   61 2    
   120   60   62 1    
   121   62   63 1    
   122   62   64 1    
   123   62  123 1    
   124   63  124 1    
   125   63  125 1    
   126   63  126 1    
   127   64   65 am   BACKBONE|DICT|INTERRES
   128   64  127 1    
   129   65   66 2    
@<TRIPOS>SUBSTRUCTURE
     1 UNK         1 GROUP             0       ****    0 ROOT    
