@<TRIPOS>MOLECULE
3R134
127   129    1
SMALL
USER_CHARGES


@<TRIPOS>ATOM
      1 CA         37.6831  -45.0413  -53.6568 C.3       0 UNK        -0.1968 
      2 C          36.6795  -44.6775  -52.5664 C.2       0 UNK         0.4852 
      3 O          37.0157  -43.8995  -51.6749 O.2       0 UNK        -0.5359 
      4 N          35.4492  -45.2060  -52.5819 N.am      1 UNK        -0.4300 
      5 CA         34.9026  -46.1753  -53.5353 C.3       1 UNK         0.0863 
      6 C6         33.8520  -45.5466  -54.4900 C.3       11 UNK        -0.0953 
      7 S7         34.4875  -44.1957  -55.5411 S.3       11 UNK        -0.2369 
      8 C8         33.8418  -42.7030  -54.7136 C.3       11 UNK         0.0226 
      9 C9         32.3203  -42.6906  -54.6450 C.ar      11 UNK        -0.0699 
     10 C10        31.6744  -43.0206  -53.4499 C.ar      11 UNK        -0.0804 
     11 C11        30.2810  -43.0853  -53.3889 C.ar      11 UNK        -0.0871 
     12 C12        29.5282  -42.7631  -54.5207 C.ar      11 UNK        -0.1008 
     13 C13        30.1608  -42.4140  -55.7169 C.ar      11 UNK        -0.0735 
     14 C14        31.5581  -42.3789  -55.7756 C.ar      11 UNK        -0.0945 
     15 C15        29.3249  -42.1123  -56.9483 C.3       11 UNK         0.0169 
     16 S16        28.8763  -43.6541  -57.7967 S.3       11 UNK        -0.2669 
     17 C17        27.6147  -43.0558  -58.9726 C.3       11 UNK        -0.0850 
     18 CA         26.1570  -43.2337  -58.4643 C.3       10 UNK         0.0855 
     19 C          25.1557  -42.7569  -59.5568 C.2       10 UNK         0.5543 
     20 N          24.4571  -43.6497  -60.2484 N.am      10 UNK        -0.7343 
     21 O          25.0186  -41.5569  -59.7807 O.2       10 UNK        -0.5027 
     22 N          25.9269  -44.5954  -57.9581 N.am      10 UNK        -0.4495 
     23 C          24.8369  -45.0469  -57.3243 C.2       10 UNK         0.4903 
     24 O          23.8733  -44.3361  -57.0363 O.2       10 UNK        -0.4860 
     25 CA         24.8233  -46.5381  -56.9207 C.3       9 UNK         0.0227 
     26 CB         23.4710  -47.2138  -57.2290 C.3       9 UNK        -0.1964 
     27 N          25.9444  -47.3226  -57.4620 N.am      9 UNK        -0.4231 
     28 C          26.2078  -47.5983  -58.7500 C.2       9 UNK         0.5014 
     29 O          25.4919  -47.2517  -59.6904 O.2       9 UNK        -0.5270 
     30 CA         27.5230  -48.3332  -59.0479 C.3       8 UNK         0.0284 
     31 CB         28.6750  -47.3232  -59.1793 C.3       8 UNK        -0.1977 
     32 N          27.8581  -49.3340  -58.0328 N.am      8 UNK        -0.4342 
     33 C          27.2684  -50.5349  -57.9463 C.2       8 UNK         0.5039 
     34 O          26.3996  -50.9292  -58.7257 O.2       8 UNK        -0.5547 
     35 CA         27.7198  -51.4567  -56.8011 C.3       7 UNK         0.0281 
     36 CB         29.0698  -52.1138  -57.1279 C.3       7 UNK        -0.1963 
     37 N          27.7997  -50.7663  -55.5127 N.am      7 UNK        -0.4444 
     38 C          26.7403  -50.2829  -54.8483 C.2       7 UNK         0.5104 
     39 O          25.5767  -50.3848  -55.2373 O.2       7 UNK        -0.5100 
     40 CA         27.0242  -49.5560  -53.5244 C.3       6 UNK         0.0396 
     41 CB         27.1095  -50.5578  -52.3621 C.3       6 UNK        -0.1801 
     42 N          28.2450  -48.7503  -53.5663 N.am      6 UNK        -0.4747 
     43 C          28.3980  -47.6386  -54.3005 C.2       6 UNK         0.5012 
     44 O          27.5337  -47.1890  -55.0537 O.2       6 UNK        -0.5003 
     45 CA         29.7727  -46.9411  -54.2035 C.3       5 UNK         0.0782 
     46 C46        29.9902  -46.2830  -52.8107 C.3       11 UNK        -0.0868 
     47 S47        28.6847  -45.0949  -52.3180 S.3       11 UNK        -0.2515 
     48 C48        29.5934  -43.5288  -52.1068 C.3       11 UNK         0.0199 
     49 N          30.8625  -47.8742  -54.5268 N.am      5 UNK        -0.4607 
     50 C          30.9595  -48.6093  -55.6470 C.2       4 UNK         0.5031 
     51 O          30.1799  -48.5231  -56.5942 O.2       4 UNK        -0.5119 
     52 CA         32.0677  -49.6756  -55.7080 C.3       4 UNK         0.0263 
     53 CB         33.3711  -49.1049  -56.2868 C.3       4 UNK        -0.1967 
     54 N          32.3434  -50.3282  -54.4275 N.am      4 UNK        -0.4237 
     55 C          31.4648  -50.9955  -53.6685 C.2       3 UNK         0.4908 
     56 O          30.2824  -51.1517  -53.9759 O.2       3 UNK        -0.5102 
     57 CA         31.9708  -51.5581  -52.3242 C.3       3 UNK         0.0241 
     58 CB         32.5382  -52.9802  -52.4985 C.3       3 UNK        -0.1971 
     59 N          32.9088  -50.6757  -51.6066 N.am      3 UNK        -0.4139 
     60 C          34.1467  -50.3019  -51.9636 C.2       2 UNK         0.5016 
     61 O          34.7414  -50.7274  -52.9567 O.2       2 UNK        -0.5319 
     62 CA         34.8003  -49.1907  -51.1235 C.3       2 UNK         0.0286 
     63 CB         36.0525  -49.7149  -50.4021 C.3       2 UNK        -0.1963 
     64 N          35.1645  -48.0356  -51.9543 N.am      2 UNK        -0.4790 
     65 C          34.3071  -47.3319  -52.7103 C.2       1 UNK         0.5024 
     66 O          33.0939  -47.5504  -52.7381 O.2       1 UNK        -0.4888 
     67 H67        37.9826  -46.0853  -53.5723 H         1 UNK         0.0892 
     68 H68        37.2658  -44.8727  -54.6487 H         1 UNK         0.0892 
     69 H69        38.5804  -44.4290  -53.5701 H         1 UNK         0.0892 
     70 H70        34.8227  -44.9688  -51.8255 H         1 UNK         0.3107 
     71 H71        35.6891  -46.6179  -54.1475 H         1 UNK         0.0773 
     72 H72        32.9908  -45.2041  -53.9236 H         1 UNK         0.0680 
     73 H73        33.4582  -46.3015  -55.1696 H         1 UNK         0.0680 
     74 H74        34.1877  -41.8223  -55.2564 H         1 UNK         0.0650 
     75 H75        34.2745  -42.6344  -53.7143 H         1 UNK         0.0650 
     76 H76        32.2616  -43.2688  -52.5763 H         1 UNK         0.1397 
     77 H77        28.4485  -42.8166  -54.4794 H         1 UNK         0.1363 
     78 H78        32.0533  -42.1328  -56.7050 H         1 UNK         0.1355 
     79 H79        29.8690  -41.4613  -57.6344 H         1 UNK         0.0707 
     80 H80        28.4198  -41.5761  -56.6578 H         1 UNK         0.0707 
     81 H81        27.7557  -43.6039  -59.9064 H         1 UNK         0.1034 
     82 H82        27.8126  -42.0087  -59.2111 H         1 UNK         0.1034 
     83 H83        26.0207  -42.5650  -57.6124 H         1 UNK         0.0482 
     84 H84        24.5743  -44.6357  -60.0694 H         1 UNK         0.3460 
     85 H85        23.8098  -43.3356  -60.9541 H         1 UNK         0.3460 
     86 H86        26.6786  -45.2474  -58.1200 H         1 UNK         0.2989 
     87 H87        24.9534  -46.5522  -55.8379 H         1 UNK         0.0559 
     88 H88        23.2292  -47.1765  -58.2914 H         1 UNK         0.0848 
     89 H89        22.6569  -46.7217  -56.6956 H         1 UNK         0.0848 
     90 H90        23.4727  -48.2595  -56.9207 H         1 UNK         0.0848 
     91 H91        26.6321  -47.5917  -56.7628 H         1 UNK         0.3144 
     92 H92        27.4101  -48.8399  -60.0090 H         1 UNK         0.0727 
     93 H93        28.8499  -46.7850  -58.2466 H         1 UNK         0.0790 
     94 H94        28.4613  -46.5809  -59.9496 H         1 UNK         0.0790 
     95 H95        29.6060  -47.8185  -59.4554 H         1 UNK         0.0790 
     96 H96        28.6039  -49.0928  -57.3808 H         1 UNK         0.3215 
     97 H97        26.9762  -52.2506  -56.7015 H         1 UNK         0.0863 
     98 H98        29.4034  -52.7664  -56.3207 H         1 UNK         0.0808 
     99 H99        29.8463  -51.3708  -57.3037 H         1 UNK         0.0808 
    100 H100       28.9955  -52.7228  -58.0297 H         1 UNK         0.0808 
    101 H101       28.7157  -50.6925  -55.0779 H         1 UNK         0.3118 
    102 H102       26.1866  -48.8826  -53.3301 H         1 UNK         0.0546 
    103 H103       26.1979  -51.1531  -52.2942 H         1 UNK         0.0828 
    104 H104       27.2336  -50.0482  -51.4066 H         1 UNK         0.0828 
    105 H105       27.9422  -51.2515  -52.4844 H         1 UNK         0.0828 
    106 H106       29.0326  -49.0896  -53.0332 H         1 UNK         0.3005 
    107 H107       29.7883  -46.1518  -54.9591 H         1 UNK         0.1257 
    108 H108       30.9556  -45.7782  -52.7921 H         1 UNK         0.0775 
    109 H109       30.0516  -47.0487  -52.0354 H         1 UNK         0.0775 
    110 H110       28.8939  -42.7538  -51.7906 H         1 UNK         0.0840 
    111 H111       30.3120  -43.6429  -51.2936 H         1 UNK         0.0840 
    112 H112       31.5863  -47.9750  -53.8203 H         1 UNK         0.2987 
    113 H113       31.7216  -50.4524  -56.3902 H         1 UNK         0.0785 
    114 H114       33.8961  -48.4808  -55.5660 H         1 UNK         0.0798 
    115 H115       33.1811  -48.5012  -57.1756 H         1 UNK         0.0798 
    116 H116       34.0503  -49.9055  -56.5803 H         1 UNK         0.0798 
    117 H117       33.3008  -50.2940  -54.0867 H         1 UNK         0.3079 
    118 H118       31.0941  -51.6370  -51.6792 H         1 UNK         0.0794 
    119 H119       33.4038  -52.9995  -53.1612 H         1 UNK         0.0786 
    120 H120       31.7887  -53.6456  -52.9292 H         1 UNK         0.0786 
    121 H121       32.8386  -53.4070  -51.5416 H         1 UNK         0.0786 
    122 H122       32.5121  -50.2274  -50.7918 H         1 UNK         0.3032 
    123 H123       34.0881  -48.8457  -50.3705 H         1 UNK         0.1094 
    124 H124       36.4943  -48.9494  -49.7638 H         1 UNK         0.0794 
    125 H125       35.8077  -50.5652  -49.7640 H         1 UNK         0.0794 
    126 H126       36.8158  -50.0468  -51.1074 H         1 UNK         0.0794 
    127 H127       36.1441  -47.7932  -51.9813 H         1 UNK         0.3016 
@<TRIPOS>BOND
     1    1    2 1    
     2    1   67 1    
     3    1   68 1    
     4    1   69 1    
     5    2    3 2    
     6    2    4 am   BACKBONE|DICT|INTERRES
     7    4    5 1    
     8    4   70 1    
     9    5    6 1    
    10    5   65 1    
    11    5   71 1    
    12    6    7 1    
    13    6   72 1    
    14    6   73 1    
    15    7    8 1    
    16    8    9 1    
    17    8   74 1    
    18    8   75 1    
    19    9   10 ar   
    20    9   14 ar   
    21   10   11 ar   
    22   10   76 1    
    23   11   12 ar   
    24   11   48 1    
    25   12   13 ar   
    26   12   77 1    
    27   13   14 ar   
    28   13   15 1    
    29   14   78 1    
    30   15   16 1    
    31   15   79 1    
    32   15   80 1    
    33   16   17 1    
    34   17   18 1    
    35   17   81 1    
    36   17   82 1    
    37   18   19 1    
    38   18   22 1    
    39   18   83 1    
    40   19   20 am   BACKBONE|DICT|INTERRES
    41   19   21 2    
    42   20   84 1    
    43   20   85 1    
    44   22   23 am   BACKBONE|DICT|INTERRES
    45   22   86 1    
    46   23   24 2    
    47   23   25 1    
    48   25   26 1    
    49   25   27 1    
    50   25   87 1    
    51   26   88 1    
    52   26   89 1    
    53   26   90 1    
    54   27   28 am   BACKBONE|DICT|INTERRES
    55   27   91 1    
    56   28   29 2    
    57   28   30 1    
    58   30   31 1    
    59   30   32 1    
    60   30   92 1    
    61   31   93 1    
    62   31   94 1    
    63   31   95 1    
    64   32   33 am   BACKBONE|DICT|INTERRES
    65   32   96 1    
    66   33   34 2    
    67   33   35 1    
    68   35   36 1    
    69   35   37 1    
    70   35   97 1    
    71   36   98 1    
    72   36   99 1    
    73   36  100 1    
    74   37   38 am   BACKBONE|DICT|INTERRES
    75   37  101 1    
    76   38   39 2    
    77   38   40 1    
    78   40   41 1    
    79   40   42 1    
    80   40  102 1    
    81   41  103 1    
    82   41  104 1    
    83   41  105 1    
    84   42   43 am   BACKBONE|DICT|INTERRES
    85   42  106 1    
    86   43   44 2    
    87   43   45 1    
    88   45   46 1    
    89   45   49 1    
    90   45  107 1    
    91   46   47 1    
    92   46  108 1    
    93   46  109 1    
    94   47   48 1    
    95   48  110 1    
    96   48  111 1    
    97   49   50 am   BACKBONE|DICT|INTERRES
    98   49  112 1    
    99   50   51 2    
   100   50   52 1    
   101   52   53 1    
   102   52   54 1    
   103   52  113 1    
   104   53  114 1    
   105   53  115 1    
   106   53  116 1    
   107   54   55 am   BACKBONE|DICT|INTERRES
   108   54  117 1    
   109   55   56 2    
   110   55   57 1    
   111   57   58 1    
   112   57   59 1    
   113   57  118 1    
   114   58  119 1    
   115   58  120 1    
   116   58  121 1    
   117   59   60 am   BACKBONE|DICT|INTERRES
   118   59  122 1    
   119   60   61 2    
   120   60   62 1    
   121   62   63 1    
   122   62   64 1    
   123   62  123 1    
   124   63  124 1    
   125   63  125 1    
   126   63  126 1    
   127   64   65 am   BACKBONE|DICT|INTERRES
   128   64  127 1    
   129   65   66 2    
@<TRIPOS>SUBSTRUCTURE
     1 UNK         1 GROUP             0       ****    0 ROOT    
