@<TRIPOS>MOLECULE
3R134
127   129    1
SMALL
USER_CHARGES


@<TRIPOS>ATOM
      1 CA         37.3598  -46.8383  -53.6778 C.3       0 UNK        -0.1968 
      2 C          35.8959  -47.2318  -53.7984 C.2       0 UNK         0.4852 
      3 O          35.3823  -47.9411  -52.9304 O.2       0 UNK        -0.5359 
      4 N          35.2128  -46.7636  -54.8550 N.am      1 UNK        -0.4300 
      5 CA         33.8062  -47.0716  -55.1531 C.3       1 UNK         0.0863 
      6 C6         33.3697  -46.5297  -56.5390 C.3       11 UNK        -0.0953 
      7 S7         32.0627  -47.5521  -57.3028 S.3       11 UNK        -0.2369 
      8 C8         30.7422  -46.3377  -57.6131 C.3       11 UNK         0.0226 
      9 C9         30.0881  -45.8510  -56.3288 C.ar      11 UNK        -0.0699 
     10 C10        29.2548  -46.7017  -55.6000 C.ar      11 UNK        -0.0804 
     11 C11        28.6630  -46.2787  -54.4075 C.ar      11 UNK        -0.0871 
     12 C12        28.8894  -44.9743  -53.9590 C.ar      11 UNK        -0.1008 
     13 C13        29.6805  -44.0945  -54.7045 C.ar      11 UNK        -0.0735 
     14 C14        30.2955  -44.5461  -55.8765 C.ar      11 UNK        -0.0945 
     15 C15        29.8657  -42.6514  -54.2591 C.3       11 UNK         0.0169 
     16 S16        29.1844  -41.4836  -55.4830 S.3       11 UNK        -0.2669 
     17 C17        27.4243  -41.3336  -55.0043 C.3       11 UNK        -0.0850 
     18 CA         26.5480  -42.6168  -55.1457 C.3       10 UNK         0.0855 
     19 C          25.0555  -42.3505  -54.7785 C.2       10 UNK         0.5543 
     20 N          24.0797  -42.9567  -55.4448 N.am      10 UNK        -0.7343 
     21 O          24.7735  -41.6016  -53.8460 O.2       10 UNK        -0.5027 
     22 N          26.7499  -43.3596  -56.4022 N.am      10 UNK        -0.4495 
     23 C          26.5141  -42.9064  -57.6394 C.2       10 UNK         0.4903 
     24 O          26.1585  -41.7573  -57.9032 O.2       10 UNK        -0.4860 
     25 CA         26.6714  -43.9234  -58.7853 C.3       9 UNK         0.0227 
     26 CB         28.1241  -43.9398  -59.2874 C.3       9 UNK        -0.1964 
     27 N          26.2501  -45.2955  -58.4642 N.am      9 UNK        -0.4231 
     28 C          25.0394  -45.6683  -58.0185 C.2       9 UNK         0.5014 
     29 O          24.1529  -44.8666  -57.7188 O.2       9 UNK        -0.5270 
     30 CA         24.7535  -47.1810  -57.9042 C.3       8 UNK         0.0284 
     31 CB         23.2987  -47.5130  -58.2873 C.3       8 UNK        -0.1977 
     32 N          25.6532  -47.9917  -58.7347 N.am      8 UNK        -0.4342 
     33 C          26.7542  -48.6066  -58.2899 C.2       8 UNK         0.5039 
     34 O          27.1294  -48.5662  -57.1168 O.2       8 UNK        -0.5547 
     35 CA         27.5916  -49.3709  -59.3257 C.3       7 UNK         0.0281 
     36 CB         28.0735  -48.4540  -60.4693 C.3       7 UNK        -0.1963 
     37 N          28.7405  -49.9456  -58.6337 N.am      7 UNK        -0.4444 
     38 C          29.4842  -50.9838  -59.0288 C.2       7 UNK         0.5104 
     39 O          29.2818  -51.6075  -60.0714 O.2       7 UNK        -0.5100 
     40 CA         30.6625  -51.3935  -58.1228 C.3       6 UNK         0.0396 
     41 CB         31.9995  -51.1636  -58.8471 C.3       6 UNK        -0.1801 
     42 N          30.6858  -50.6530  -56.8572 N.am      6 UNK        -0.4747 
     43 C          30.1333  -51.0686  -55.7100 C.2       6 UNK         0.5012 
     44 O          29.5798  -52.1609  -55.5690 O.2       6 UNK        -0.5003 
     45 CA         30.1895  -50.0847  -54.5231 C.3       5 UNK         0.0782 
     46 C46        28.7696  -49.8524  -53.9472 C.3       11 UNK        -0.0868 
     47 S47        28.6974  -48.4997  -52.7224 S.3       11 UNK        -0.2515 
     48 C48        27.7587  -47.2166  -53.6186 C.3       11 UNK         0.0199 
     49 N          31.1432  -50.5070  -53.4912 N.am      5 UNK        -0.4607 
     50 C          32.4579  -50.6867  -53.6721 C.2       4 UNK         0.5031 
     51 O          33.0294  -50.5695  -54.7567 O.2       4 UNK        -0.5119 
     52 CA         33.2759  -51.0067  -52.4148 C.3       4 UNK         0.0263 
     53 CB         34.6145  -51.6916  -52.7489 C.3       4 UNK        -0.1967 
     54 N          33.5565  -49.7614  -51.7030 N.am      4 UNK        -0.4237 
     55 C          33.0130  -49.4031  -50.5325 C.2       3 UNK         0.4908 
     56 O          32.1790  -50.0785  -49.9282 O.2       3 UNK        -0.5102 
     57 CA         33.4815  -48.0722  -49.9255 C.3       3 UNK         0.0241 
     58 CB         34.9258  -48.1836  -49.4071 C.3       3 UNK        -0.1971 
     59 N          33.3962  -46.9949  -50.9104 N.am      3 UNK        -0.4139 
     60 C          32.4273  -46.0684  -50.9494 C.2       2 UNK         0.5016 
     61 O          31.5508  -45.9580  -50.0908 O.2       2 UNK        -0.5319 
     62 CA         32.4256  -45.0856  -52.1399 C.3       2 UNK         0.0286 
     63 CB         32.9756  -43.7150  -51.7137 C.3       2 UNK        -0.1963 
     64 N          33.1695  -45.5553  -53.3135 N.am      2 UNK        -0.4790 
     65 C          32.8396  -46.6407  -54.0297 C.2       1 UNK         0.5024 
     66 O          31.8588  -47.3325  -53.7806 O.2       1 UNK        -0.4888 
     67 H67        37.5266  -46.2988  -52.7459 H         1 UNK         0.0892 
     68 H68        37.9862  -47.7298  -53.6720 H         1 UNK         0.0892 
     69 H69        37.6817  -46.2020  -54.5019 H         1 UNK         0.0892 
     70 H70        35.6871  -46.1784  -55.5281 H         1 UNK         0.3107 
     71 H71        33.7628  -48.1604  -55.1950 H         1 UNK         0.0773 
     72 H72        34.2118  -46.5520  -57.2321 H         1 UNK         0.0680 
     73 H73        33.0629  -45.4838  -56.4819 H         1 UNK         0.0680 
     74 H74        29.9831  -46.8032  -58.2421 H         1 UNK         0.0650 
     75 H75        31.1472  -45.5038  -58.1885 H         1 UNK         0.0650 
     76 H76        29.0864  -47.7055  -55.9525 H         1 UNK         0.1397 
     77 H77        28.4288  -44.6356  -53.0412 H         1 UNK         0.1363 
     78 H78        30.9190  -43.8704  -56.4454 H         1 UNK         0.1355 
     79 H79        30.9327  -42.4562  -54.1440 H         1 UNK         0.0707 
     80 H80        29.4119  -42.4722  -53.2832 H         1 UNK         0.0707 
     81 H81        26.9974  -40.5320  -55.6095 H         1 UNK         0.1034 
     82 H82        27.3896  -40.9704  -53.9756 H         1 UNK         0.1034 
     83 H83        26.8712  -43.3017  -54.3660 H         1 UNK         0.0482 
     84 H84        24.2771  -43.5758  -56.2245 H         1 UNK         0.3460 
     85 H85        23.1238  -42.7783  -55.1820 H         1 UNK         0.3460 
     86 H86        27.0509  -44.3171  -56.2953 H         1 UNK         0.2989 
     87 H87        26.0359  -43.5838  -59.6056 H         1 UNK         0.0559 
     88 H88        28.8119  -44.2811  -58.5142 H         1 UNK         0.0848 
     89 H89        28.4441  -42.9398  -59.5839 H         1 UNK         0.0848 
     90 H90        28.2423  -44.5867  -60.1568 H         1 UNK         0.0848 
     91 H91        26.9164  -46.0278  -58.6558 H         1 UNK         0.3144 
     92 H92        24.8838  -47.4426  -56.8519 H         1 UNK         0.0727 
     93 H93        23.0977  -48.5803  -58.1921 H         1 UNK         0.0790 
     94 H94        23.0737  -47.2185  -59.3130 H         1 UNK         0.0790 
     95 H95        22.5914  -46.9966  -57.6367 H         1 UNK         0.0790 
     96 H96        25.4164  -48.0601  -59.7151 H         1 UNK         0.3215 
     97 H97        26.9764  -50.1777  -59.7298 H         1 UNK         0.0863 
     98 H98        28.6567  -47.6123  -60.0957 H         1 UNK         0.0808 
     99 H99        27.2368  -48.0472  -61.0378 H         1 UNK         0.0808 
    100 H100       28.6981  -48.9990  -61.1774 H         1 UNK         0.0808 
    101 H101       28.9005  -49.5442  -57.7188 H         1 UNK         0.3118 
    102 H102       30.5664  -52.4626  -57.9230 H         1 UNK         0.0546 
    103 H103       32.8436  -51.4621  -58.2251 H         1 UNK         0.0828 
    104 H104       32.1376  -50.1167  -59.1200 H         1 UNK         0.0828 
    105 H105       32.0525  -51.7488  -59.7662 H         1 UNK         0.0828 
    106 H106       31.1739  -49.7656  -56.8723 H         1 UNK         0.3005 
    107 H107       30.5541  -49.1324  -54.9063 H         1 UNK         0.1257 
    108 H108       28.0601  -49.6439  -54.7497 H         1 UNK         0.0775 
    109 H109       28.4048  -50.7605  -53.4636 H         1 UNK         0.0775 
    110 H110       27.0234  -47.6703  -54.2849 H         1 UNK         0.0840 
    111 H111       27.1812  -46.6487  -52.8877 H         1 UNK         0.0840 
    112 H112       30.7687  -50.5853  -52.5568 H         1 UNK         0.2987 
    113 H113       32.6940  -51.6934  -51.7962 H         1 UNK         0.0785 
    114 H114       35.1543  -51.9649  -51.8422 H         1 UNK         0.0798 
    115 H115       34.4532  -52.6067  -53.3202 H         1 UNK         0.0798 
    116 H116       35.2644  -51.0451  -53.3408 H         1 UNK         0.0798 
    117 H117       34.2137  -49.1293  -52.1582 H         1 UNK         0.3079 
    118 H118       32.8388  -47.8540  -49.0698 H         1 UNK         0.0794 
    119 H119       35.2396  -47.2622  -48.9162 H         1 UNK         0.0786 
    120 H120       35.6349  -48.3912  -50.2095 H         1 UNK         0.0786 
    121 H121       35.0162  -48.9875  -48.6753 H         1 UNK         0.0786 
    122 H122       34.0557  -47.0381  -51.6799 H         1 UNK         0.3032 
    123 H123       31.3832  -44.9610  -52.4401 H         1 UNK         0.1094 
    124 H124       32.4159  -43.3170  -50.8660 H         1 UNK         0.0794 
    125 H125       34.0224  -43.7763  -51.4134 H         1 UNK         0.0794 
    126 H126       32.8977  -42.9864  -52.5206 H         1 UNK         0.0794 
    127 H127       34.0041  -45.0459  -53.5647 H         1 UNK         0.3016 
@<TRIPOS>BOND
     1    1    2 1    
     2    1   67 1    
     3    1   68 1    
     4    1   69 1    
     5    2    3 2    
     6    2    4 am   BACKBONE|DICT|INTERRES
     7    4    5 1    
     8    4   70 1    
     9    5    6 1    
    10    5   65 1    
    11    5   71 1    
    12    6    7 1    
    13    6   72 1    
    14    6   73 1    
    15    7    8 1    
    16    8    9 1    
    17    8   74 1    
    18    8   75 1    
    19    9   10 ar   
    20    9   14 ar   
    21   10   11 ar   
    22   10   76 1    
    23   11   12 ar   
    24   11   48 1    
    25   12   13 ar   
    26   12   77 1    
    27   13   14 ar   
    28   13   15 1    
    29   14   78 1    
    30   15   16 1    
    31   15   79 1    
    32   15   80 1    
    33   16   17 1    
    34   17   18 1    
    35   17   81 1    
    36   17   82 1    
    37   18   19 1    
    38   18   22 1    
    39   18   83 1    
    40   19   20 am   BACKBONE|DICT|INTERRES
    41   19   21 2    
    42   20   84 1    
    43   20   85 1    
    44   22   23 am   BACKBONE|DICT|INTERRES
    45   22   86 1    
    46   23   24 2    
    47   23   25 1    
    48   25   26 1    
    49   25   27 1    
    50   25   87 1    
    51   26   88 1    
    52   26   89 1    
    53   26   90 1    
    54   27   28 am   BACKBONE|DICT|INTERRES
    55   27   91 1    
    56   28   29 2    
    57   28   30 1    
    58   30   31 1    
    59   30   32 1    
    60   30   92 1    
    61   31   93 1    
    62   31   94 1    
    63   31   95 1    
    64   32   33 am   BACKBONE|DICT|INTERRES
    65   32   96 1    
    66   33   34 2    
    67   33   35 1    
    68   35   36 1    
    69   35   37 1    
    70   35   97 1    
    71   36   98 1    
    72   36   99 1    
    73   36  100 1    
    74   37   38 am   BACKBONE|DICT|INTERRES
    75   37  101 1    
    76   38   39 2    
    77   38   40 1    
    78   40   41 1    
    79   40   42 1    
    80   40  102 1    
    81   41  103 1    
    82   41  104 1    
    83   41  105 1    
    84   42   43 am   BACKBONE|DICT|INTERRES
    85   42  106 1    
    86   43   44 2    
    87   43   45 1    
    88   45   46 1    
    89   45   49 1    
    90   45  107 1    
    91   46   47 1    
    92   46  108 1    
    93   46  109 1    
    94   47   48 1    
    95   48  110 1    
    96   48  111 1    
    97   49   50 am   BACKBONE|DICT|INTERRES
    98   49  112 1    
    99   50   51 2    
   100   50   52 1    
   101   52   53 1    
   102   52   54 1    
   103   52  113 1    
   104   53  114 1    
   105   53  115 1    
   106   53  116 1    
   107   54   55 am   BACKBONE|DICT|INTERRES
   108   54  117 1    
   109   55   56 2    
   110   55   57 1    
   111   57   58 1    
   112   57   59 1    
   113   57  118 1    
   114   58  119 1    
   115   58  120 1    
   116   58  121 1    
   117   59   60 am   BACKBONE|DICT|INTERRES
   118   59  122 1    
   119   60   61 2    
   120   60   62 1    
   121   62   63 1    
   122   62   64 1    
   123   62  123 1    
   124   63  124 1    
   125   63  125 1    
   126   63  126 1    
   127   64   65 am   BACKBONE|DICT|INTERRES
   128   64  127 1    
   129   65   66 2    
@<TRIPOS>SUBSTRUCTURE
     1 UNK         1 GROUP             0       ****    0 ROOT    
