@<TRIPOS>MOLECULE
3R134
127   129    1
SMALL
USER_CHARGES


@<TRIPOS>ATOM
      1 CA         36.1643  -46.6408  -51.6361 C.3       0 UNK        -0.1968 
      2 C          35.2323  -46.5566  -52.8356 C.2       0 UNK         0.4852 
      3 O          34.1426  -47.1259  -52.7946 O.2       0 UNK        -0.5359 
      4 N          35.6577  -45.8536  -53.8954 N.am      1 UNK        -0.4300 
      5 CA         34.9414  -45.6701  -55.1669 C.3       1 UNK         0.0863 
      6 C6         33.6133  -44.8701  -55.0270 C.3       11 UNK        -0.0953 
      7 S7         33.9339  -43.2231  -54.3086 S.3       11 UNK        -0.2369 
      8 C8         32.5539  -42.2320  -54.9671 C.3       11 UNK         0.0226 
      9 C9         31.2182  -42.4748  -54.2683 C.ar      11 UNK        -0.0699 
     10 C10        31.1387  -42.6663  -52.8831 C.ar      11 UNK        -0.0804 
     11 C11        29.9015  -42.8368  -52.2546 C.ar      11 UNK        -0.0871 
     12 C12        28.7312  -42.7970  -53.0180 C.ar      11 UNK        -0.1008 
     13 C13        28.7946  -42.5954  -54.3995 C.ar      11 UNK        -0.0735 
     14 C14        30.0391  -42.4408  -55.0177 C.ar      11 UNK        -0.0945 
     15 C15        27.5193  -42.5262  -55.2273 C.3       11 UNK         0.0169 
     16 S16        26.6937  -44.1411  -55.3889 S.3       11 UNK        -0.2669 
     17 C17        28.0223  -45.1953  -56.0698 C.3       11 UNK        -0.0850 
     18 CA         28.2648  -44.9645  -57.5820 C.3       10 UNK         0.0855 
     19 C          29.5216  -45.7401  -58.0738 C.2       10 UNK         0.5543 
     20 N          29.4190  -46.6443  -59.0418 N.am      10 UNK        -0.7343 
     21 O          30.6175  -45.5050  -57.5711 O.2       10 UNK        -0.5027 
     22 N          27.0492  -45.2176  -58.3694 N.am      10 UNK        -0.4495 
     23 C          26.8006  -44.6892  -59.5750 C.2       10 UNK         0.4903 
     24 O          27.5217  -43.8444  -60.1086 O.2       10 UNK        -0.4860 
     25 CA         25.5388  -45.1912  -60.3123 C.3       9 UNK         0.0227 
     26 CB         25.6560  -45.0490  -61.8451 C.3       9 UNK        -0.1964 
     27 N          25.1466  -46.5619  -59.9529 N.am      9 UNK        -0.4231 
     28 C          25.8987  -47.6675  -60.0541 C.2       9 UNK         0.5014 
     29 O          27.0489  -47.6913  -60.4988 O.2       9 UNK        -0.5270 
     30 CA         25.2736  -48.9643  -59.5178 C.3       8 UNK         0.0284 
     31 CB         25.1143  -50.0030  -60.6406 C.3       8 UNK        -0.1977 
     32 N          26.0815  -49.5320  -58.4362 N.am      8 UNK        -0.4342 
     33 C          26.3194  -48.9326  -57.2623 C.2       8 UNK         0.5039 
     34 O          25.8701  -47.8263  -56.9478 O.2       8 UNK        -0.5547 
     35 CA         27.2205  -49.6916  -56.2839 C.3       7 UNK         0.0281 
     36 CB         28.7051  -49.3954  -56.5557 C.3       7 UNK        -0.1963 
     37 N          26.8862  -49.2905  -54.9211 N.am      7 UNK        -0.4444 
     38 C          26.9263  -50.0848  -53.8477 C.2       7 UNK         0.5104 
     39 O          27.2803  -51.2650  -53.8807 O.2       7 UNK        -0.5100 
     40 CA         26.5378  -49.4355  -52.5065 C.3       6 UNK         0.0396 
     41 CB         26.2345  -50.4764  -51.4129 C.3       6 UNK        -0.1801 
     42 N          27.6171  -48.5652  -52.0431 N.am      6 UNK        -0.4747 
     43 C          27.8412  -47.3149  -52.4731 C.2       6 UNK         0.5012 
     44 O          27.0769  -46.7198  -53.2296 O.2       6 UNK        -0.5003 
     45 CA         29.1337  -46.6204  -51.9887 C.3       5 UNK         0.0782 
     46 C46        28.8172  -45.6755  -50.8039 C.3       11 UNK        -0.0868 
     47 S47        30.2761  -44.7271  -50.2538 S.3       11 UNK        -0.2515 
     48 C48        29.8350  -43.0303  -50.7466 C.3       11 UNK         0.0199 
     49 N          30.1818  -47.5946  -51.6518 N.am      5 UNK        -0.4607 
     50 C          30.8157  -48.3665  -52.5433 C.2       4 UNK         0.5031 
     51 O          30.6524  -48.2825  -53.7624 O.2       4 UNK        -0.5119 
     52 CA         31.7305  -49.4507  -51.9601 C.3       4 UNK         0.0263 
     53 CB         30.9060  -50.5692  -51.2918 C.3       4 UNK        -0.1967 
     54 N          32.5417  -50.0119  -53.0329 N.am      4 UNK        -0.4237 
     55 C          33.7254  -50.6155  -52.8946 C.2       3 UNK         0.4908 
     56 O          34.2449  -50.8511  -51.8025 O.2       3 UNK        -0.5102 
     57 CA         34.4843  -51.0154  -54.1751 C.3       3 UNK         0.0241 
     58 CB         34.1647  -52.4668  -54.5848 C.3       3 UNK        -0.1971 
     59 N          34.3249  -50.0796  -55.2985 N.am      3 UNK        -0.4139 
     60 C          33.2429  -49.8217  -56.0460 C.2       2 UNK         0.5016 
     61 O          32.1662  -50.4043  -55.9144 O.2       2 UNK        -0.5319 
     62 CA         33.3854  -48.6782  -57.0706 C.3       2 UNK         0.0286 
     63 CB         32.1469  -48.5363  -57.9704 C.3       2 UNK        -0.1963 
     64 N          33.6427  -47.3926  -56.4093 N.am      2 UNK        -0.4790 
     65 C          34.8281  -47.0226  -55.9047 C.2       1 UNK         0.5024 
     66 O          35.8382  -47.7254  -56.0048 O.2       1 UNK        -0.4888 
     67 H67        37.1039  -46.1169  -51.8101 H         1 UNK         0.0892 
     68 H68        35.6870  -46.2012  -50.7607 H         1 UNK         0.0892 
     69 H69        36.3923  -47.6828  -51.4129 H         1 UNK         0.0892 
     70 H70        36.5755  -45.4330  -53.8642 H         1 UNK         0.3107 
     71 H71        35.6063  -45.0733  -55.7933 H         1 UNK         0.0773 
     72 H72        33.1435  -44.7329  -56.0026 H         1 UNK         0.0680 
     73 H73        32.8895  -45.3946  -54.4005 H         1 UNK         0.0680 
     74 H74        32.4698  -42.4126  -56.0399 H         1 UNK         0.0650 
     75 H75        32.8072  -41.1774  -54.8530 H         1 UNK         0.0650 
     76 H76        32.0403  -42.6781  -52.2864 H         1 UNK         0.1397 
     77 H77        27.7679  -42.9187  -52.5415 H         1 UNK         0.1363 
     78 H78        30.0890  -42.2795  -56.0860 H         1 UNK         0.1355 
     79 H79        27.7236  -42.1305  -56.2232 H         1 UNK         0.0707 
     80 H80        26.8269  -41.8243  -54.7604 H         1 UNK         0.0707 
     81 H81        27.7460  -46.2348  -55.8901 H         1 UNK         0.1034 
     82 H82        28.9355  -45.0400  -55.4935 H         1 UNK         0.1034 
     83 H83        28.5200  -43.9108  -57.7055 H         1 UNK         0.0482 
     84 H84        30.2478  -47.1205  -59.3543 H         1 UNK         0.3460 
     85 H85        28.5272  -46.8525  -59.4793 H         1 UNK         0.3460 
     86 H86        26.4240  -45.9225  -57.9967 H         1 UNK         0.2989 
     87 H87        24.7234  -44.5460  -59.9825 H         1 UNK         0.0559 
     88 H88        25.8087  -44.0082  -62.1333 H         1 UNK         0.0848 
     89 H89        24.7509  -45.3912  -62.3468 H         1 UNK         0.0848 
     90 H90        26.4956  -45.6217  -62.2404 H         1 UNK         0.0848 
     91 H91        24.2308  -46.6528  -59.5338 H         1 UNK         0.3144 
     92 H92        24.2829  -48.7454  -59.1135 H         1 UNK         0.0727 
     93 H93        26.0769  -50.2878  -61.0678 H         1 UNK         0.0790 
     94 H94        24.5030  -49.6072  -61.4528 H         1 UNK         0.0790 
     95 H95        24.6251  -50.9079  -60.2797 H         1 UNK         0.0790 
     96 H96        26.5243  -50.4193  -58.6270 H         1 UNK         0.3215 
     97 H97        27.0353  -50.7610  -56.4082 H         1 UNK         0.0863 
     98 H98        29.3522  -49.9722  -55.8940 H         1 UNK         0.0808 
     99 H99        28.9396  -48.3416  -56.4039 H         1 UNK         0.0808 
    100 H100       28.9809  -49.6484  -57.5801 H         1 UNK         0.0808 
    101 H101       26.5706  -48.3312  -54.8202 H         1 UNK         0.3118 
    102 H102       25.6331  -48.8445  -52.6650 H         1 UNK         0.0546 
    103 H103       27.1056  -51.0909  -51.1818 H         1 UNK         0.0828 
    104 H104       25.4356  -51.1491  -51.7275 H         1 UNK         0.0828 
    105 H105       25.9083  -49.9973  -50.4898 H         1 UNK         0.0828 
    106 H106       28.3102  -48.9892  -51.4450 H         1 UNK         0.3005 
    107 H107       29.4957  -46.0131  -52.8227 H         1 UNK         0.1257 
    108 H108       28.4447  -46.2443  -49.9497 H         1 UNK         0.0775 
    109 H109       28.0181  -44.9815  -51.0711 H         1 UNK         0.0775 
    110 H110       28.8439  -42.7815  -50.3636 H         1 UNK         0.0840 
    111 H111       30.5252  -42.3362  -50.2646 H         1 UNK         0.0840 
    112 H112       30.3963  -47.6937  -50.6701 H         1 UNK         0.2987 
    113 H113       32.3890  -48.9811  -51.2261 H         1 UNK         0.0785 
    114 H114       30.3159  -50.1855  -50.4592 H         1 UNK         0.0798 
    115 H115       31.5494  -51.3525  -50.8907 H         1 UNK         0.0798 
    116 H116       30.2161  -51.0340  -51.9980 H         1 UNK         0.0798 
    117 H117       32.1790  -49.8473  -53.9693 H         1 UNK         0.3079 
    118 H118       35.5454  -50.9771  -53.9232 H         1 UNK         0.0794 
    119 H119       34.7414  -52.7691  -55.4589 H         1 UNK         0.0786 
    120 H120       33.1078  -52.6042  -54.8147 H         1 UNK         0.0786 
    121 H121       34.4102  -53.1591  -53.7784 H         1 UNK         0.0786 
    122 H122       35.1222  -49.4710  -55.4625 H         1 UNK         0.3032 
    123 H123       34.2325  -48.9256  -57.7149 H         1 UNK         0.1094 
    124 H124       31.2637  -48.2733  -57.3884 H         1 UNK         0.0794 
    125 H125       32.2955  -47.7658  -58.7268 H         1 UNK         0.0794 
    126 H126       31.9300  -49.4692  -58.4924 H         1 UNK         0.0794 
    127 H127       32.8408  -46.7924  -56.2702 H         1 UNK         0.3016 
@<TRIPOS>BOND
     1    1    2 1    
     2    1   67 1    
     3    1   68 1    
     4    1   69 1    
     5    2    3 2    
     6    2    4 am   BACKBONE|DICT|INTERRES
     7    4    5 1    
     8    4   70 1    
     9    5    6 1    
    10    5   65 1    
    11    5   71 1    
    12    6    7 1    
    13    6   72 1    
    14    6   73 1    
    15    7    8 1    
    16    8    9 1    
    17    8   74 1    
    18    8   75 1    
    19    9   10 ar   
    20    9   14 ar   
    21   10   11 ar   
    22   10   76 1    
    23   11   12 ar   
    24   11   48 1    
    25   12   13 ar   
    26   12   77 1    
    27   13   14 ar   
    28   13   15 1    
    29   14   78 1    
    30   15   16 1    
    31   15   79 1    
    32   15   80 1    
    33   16   17 1    
    34   17   18 1    
    35   17   81 1    
    36   17   82 1    
    37   18   19 1    
    38   18   22 1    
    39   18   83 1    
    40   19   20 am   BACKBONE|DICT|INTERRES
    41   19   21 2    
    42   20   84 1    
    43   20   85 1    
    44   22   23 am   BACKBONE|DICT|INTERRES
    45   22   86 1    
    46   23   24 2    
    47   23   25 1    
    48   25   26 1    
    49   25   27 1    
    50   25   87 1    
    51   26   88 1    
    52   26   89 1    
    53   26   90 1    
    54   27   28 am   BACKBONE|DICT|INTERRES
    55   27   91 1    
    56   28   29 2    
    57   28   30 1    
    58   30   31 1    
    59   30   32 1    
    60   30   92 1    
    61   31   93 1    
    62   31   94 1    
    63   31   95 1    
    64   32   33 am   BACKBONE|DICT|INTERRES
    65   32   96 1    
    66   33   34 2    
    67   33   35 1    
    68   35   36 1    
    69   35   37 1    
    70   35   97 1    
    71   36   98 1    
    72   36   99 1    
    73   36  100 1    
    74   37   38 am   BACKBONE|DICT|INTERRES
    75   37  101 1    
    76   38   39 2    
    77   38   40 1    
    78   40   41 1    
    79   40   42 1    
    80   40  102 1    
    81   41  103 1    
    82   41  104 1    
    83   41  105 1    
    84   42   43 am   BACKBONE|DICT|INTERRES
    85   42  106 1    
    86   43   44 2    
    87   43   45 1    
    88   45   46 1    
    89   45   49 1    
    90   45  107 1    
    91   46   47 1    
    92   46  108 1    
    93   46  109 1    
    94   47   48 1    
    95   48  110 1    
    96   48  111 1    
    97   49   50 am   BACKBONE|DICT|INTERRES
    98   49  112 1    
    99   50   51 2    
   100   50   52 1    
   101   52   53 1    
   102   52   54 1    
   103   52  113 1    
   104   53  114 1    
   105   53  115 1    
   106   53  116 1    
   107   54   55 am   BACKBONE|DICT|INTERRES
   108   54  117 1    
   109   55   56 2    
   110   55   57 1    
   111   57   58 1    
   112   57   59 1    
   113   57  118 1    
   114   58  119 1    
   115   58  120 1    
   116   58  121 1    
   117   59   60 am   BACKBONE|DICT|INTERRES
   118   59  122 1    
   119   60   61 2    
   120   60   62 1    
   121   62   63 1    
   122   62   64 1    
   123   62  123 1    
   124   63  124 1    
   125   63  125 1    
   126   63  126 1    
   127   64   65 am   BACKBONE|DICT|INTERRES
   128   64  127 1    
   129   65   66 2    
@<TRIPOS>SUBSTRUCTURE
     1 UNK         1 GROUP             0       ****    0 ROOT    
