@<TRIPOS>MOLECULE
3R134
127   129    1
SMALL
USER_CHARGES


@<TRIPOS>ATOM
      1 CA         36.5027  -47.9854  -51.6719 C.3       0 UNK        -0.1968 
      2 C          35.4904  -47.7167  -52.7744 C.2       0 UNK         0.4852 
      3 O          34.4083  -48.3079  -52.7592 O.2       0 UNK        -0.5359 
      4 N          35.8423  -46.8482  -53.7356 N.am      1 UNK        -0.4300 
      5 CA         35.0479  -46.3754  -54.8865 C.3       1 UNK         0.0863 
      6 C6         33.7167  -45.6815  -54.4926 C.3       11 UNK        -0.0953 
      7 S7         33.9917  -44.2733  -53.3652 S.3       11 UNK        -0.2369 
      8 C8         33.3045  -42.8825  -54.3182 C.3       11 UNK         0.0226 
      9 C9         31.7836  -42.9238  -54.3661 C.ar      11 UNK        -0.0699 
     10 C10        31.0456  -42.8036  -53.1848 C.ar      11 UNK        -0.0804 
     11 C11        29.6496  -42.8418  -53.2105 C.ar      11 UNK        -0.0871 
     12 C12        28.9893  -42.9936  -54.4326 C.ar      11 UNK        -0.1008 
     13 C13        29.7147  -43.0932  -55.6242 C.ar      11 UNK        -0.0735 
     14 C14        31.1125  -43.0619  -55.5853 C.ar      11 UNK        -0.0945 
     15 C15        28.9790  -43.2293  -56.9482 C.3       11 UNK         0.0169 
     16 S16        28.1066  -41.6862  -57.3568 S.3       11 UNK        -0.2669 
     17 C17        27.2304  -42.1242  -58.8950 C.3       11 UNK        -0.0850 
     18 CA         25.8197  -42.7269  -58.6116 C.3       10 UNK         0.0855 
     19 C          24.7758  -42.4405  -59.7390 C.2       10 UNK         0.5543 
     20 N          23.7770  -43.2918  -59.9403 N.am      10 UNK        -0.7343 
     21 O          24.8420  -41.4168  -60.4156 O.2       10 UNK        -0.5027 
     22 N          25.8983  -44.1370  -58.1782 N.am      10 UNK        -0.4495 
     23 C          26.2555  -45.1723  -58.9519 C.2       10 UNK         0.4903 
     24 O          26.5441  -45.0711  -60.1456 O.2       10 UNK        -0.4860 
     25 CA         26.2725  -46.5510  -58.2684 C.3       9 UNK         0.0227 
     26 CB         25.8512  -47.6805  -59.2306 C.3       9 UNK        -0.1964 
     27 N          27.5578  -46.8744  -57.6389 N.am      9 UNK        -0.4231 
     28 C          28.7726  -46.9580  -58.2080 C.2       9 UNK         0.5014 
     29 O          29.0313  -46.6422  -59.3691 O.2       9 UNK        -0.5270 
     30 CA         29.8955  -47.5604  -57.3430 C.3       8 UNK         0.0284 
     31 CB         30.5527  -46.4999  -56.4502 C.3       8 UNK        -0.1977 
     32 N          29.4396  -48.6828  -56.5190 N.am      8 UNK        -0.4342 
     33 C          29.0035  -49.8545  -57.0079 C.2       8 UNK         0.5039 
     34 O          28.9833  -50.1375  -58.2060 O.2       8 UNK        -0.5547 
     35 CA         28.5071  -50.8901  -55.9905 C.3       7 UNK         0.0281 
     36 CB         29.6788  -51.7256  -55.4631 C.3       7 UNK        -0.1963 
     37 N          27.8120  -50.2556  -54.8706 N.am      7 UNK        -0.4444 
     38 C          26.5243  -49.8875  -54.9074 C.2       7 UNK         0.5104 
     39 O          25.7719  -50.1080  -55.8566 O.2       7 UNK        -0.5100 
     40 CA         25.9838  -49.1310  -53.6823 C.3       6 UNK         0.0396 
     41 CB         25.4672  -50.1190  -52.6246 C.3       6 UNK        -0.1801 
     42 N          26.9652  -48.2316  -53.0704 N.am      6 UNK        -0.4747 
     43 C          27.4895  -47.1497  -53.6652 C.2       6 UNK         0.5012 
     44 O          27.2231  -46.8003  -54.8153 O.2       6 UNK        -0.5003 
     45 CA         28.4980  -46.3308  -52.8387 C.3       5 UNK         0.0782 
     46 C46        27.7391  -45.2950  -51.9720 C.3       11 UNK        -0.0868 
     47 S47        28.8482  -44.2519  -50.9662 S.3       11 UNK        -0.2515 
     48 C48        28.8622  -42.7008  -51.9171 C.3       11 UNK         0.0199 
     49 N          29.4081  -47.1569  -52.0358 N.am      5 UNK        -0.4607 
     50 C          30.2148  -48.1280  -52.4826 C.2       4 UNK         0.5031 
     51 O          30.2202  -48.5374  -53.6488 O.2       4 UNK        -0.5119 
     52 CA         31.1922  -48.6963  -51.4355 C.3       4 UNK         0.0263 
     53 CB         30.4750  -49.1961  -50.1609 C.3       4 UNK        -0.1967 
     54 N          32.0898  -49.7118  -51.9955 N.am      4 UNK        -0.4237 
     55 C          31.7971  -50.9710  -52.3542 C.2       3 UNK         0.4908 
     56 O          30.7154  -51.5237  -52.1482 O.2       3 UNK        -0.5102 
     57 CA         32.8888  -51.6942  -53.1554 C.3       3 UNK         0.0241 
     58 CB         32.5331  -53.1580  -53.4971 C.3       3 UNK        -0.1971 
     59 N          33.1193  -50.8993  -54.3585 N.am      3 UNK        -0.4139 
     60 C          34.1308  -51.0111  -55.2262 C.2       2 UNK         0.5016 
     61 O          34.9953  -51.8866  -55.1900 O.2       2 UNK        -0.5319 
     62 CA         34.2257  -49.8838  -56.2580 C.3       2 UNK         0.0286 
     63 CB         33.0031  -49.8460  -57.1949 C.3       2 UNK        -0.1963 
     64 N          34.3619  -48.6372  -55.5127 N.am      2 UNK        -0.4790 
     65 C          34.8221  -47.4671  -55.9556 C.2       1 UNK         0.5024 
     66 O          35.1002  -47.2402  -57.1334 O.2       1 UNK        -0.4888 
     67 H67        36.0754  -47.7281  -50.7032 H         1 UNK         0.0892 
     68 H68        36.7686  -49.0420  -51.6577 H         1 UNK         0.0892 
     69 H69        37.4162  -47.4062  -51.8046 H         1 UNK         0.0892 
     70 H70        36.7630  -46.4355  -53.6812 H         1 UNK         0.3107 
     71 H71        35.6702  -45.6183  -55.3670 H         1 UNK         0.0773 
     72 H72        33.1988  -45.3271  -55.3852 H         1 UNK         0.0680 
     73 H73        33.0349  -46.3806  -54.0055 H         1 UNK         0.0680 
     74 H74        33.6172  -41.9485  -53.8496 H         1 UNK         0.0650 
     75 H75        33.7341  -42.8827  -55.3212 H         1 UNK         0.0650 
     76 H76        31.5615  -42.6898  -52.2409 H         1 UNK         0.1397 
     77 H77        27.9085  -43.0168  -54.4637 H         1 UNK         0.1363 
     78 H78        31.6774  -43.1410  -56.5040 H         1 UNK         0.1355 
     79 H79        28.2679  -44.0510  -56.8695 H         1 UNK         0.0707 
     80 H80        29.6661  -43.4847  -57.7568 H         1 UNK         0.0707 
     81 H81        27.8410  -42.7928  -59.5036 H         1 UNK         0.1034 
     82 H82        27.1589  -41.1975  -59.4666 H         1 UNK         0.1034 
     83 H83        25.4042  -42.1906  -57.7574 H         1 UNK         0.0482 
     84 H84        23.7004  -44.1292  -59.3860 H         1 UNK         0.3460 
     85 H85        23.0986  -43.0967  -60.6597 H         1 UNK         0.3460 
     86 H86        25.6534  -44.3109  -57.2139 H         1 UNK         0.2989 
     87 H87        25.5386  -46.5274  -57.4611 H         1 UNK         0.0559 
     88 H88        26.5577  -47.8000  -60.0529 H         1 UNK         0.0848 
     89 H89        24.8735  -47.4765  -59.6687 H         1 UNK         0.0848 
     90 H90        25.7824  -48.6361  -58.7099 H         1 UNK         0.0848 
     91 H91        27.4992  -47.0724  -56.6417 H         1 UNK         0.3144 
     92 H92        30.6600  -47.9449  -58.0214 H         1 UNK         0.0727 
     93 H93        31.3526  -46.9324  -55.8497 H         1 UNK         0.0790 
     94 H94        29.8342  -46.0418  -55.7720 H         1 UNK         0.0790 
     95 H95        30.9911  -45.7042  -57.0530 H         1 UNK         0.0790 
     96 H96        29.4853  -48.5616  -55.5116 H         1 UNK         0.3215 
     97 H97        27.8182  -51.5640  -56.5051 H         1 UNK         0.0863 
     98 H98        30.4084  -51.1001  -54.9525 H         1 UNK         0.0808 
     99 H99        30.1963  -52.2354  -56.2768 H         1 UNK         0.0808 
    100 H100       29.3397  -52.4877  -54.7613 H         1 UNK         0.0808 
    101 H101       28.3680  -50.0079  -54.0626 H         1 UNK         0.3118 
    102 H102       25.1418  -48.5219  -54.0181 H         1 UNK         0.0546 
    103 H103       24.9974  -49.5986  -51.7899 H         1 UNK         0.0828 
    104 H104       26.2689  -50.7417  -52.2255 H         1 UNK         0.0828 
    105 H105       24.7170  -50.7875  -53.0496 H         1 UNK         0.0828 
    106 H106       27.2568  -48.4451  -52.1272 H         1 UNK         0.3005 
    107 H107       29.1213  -45.7850  -53.5490 H         1 UNK         0.1257 
    108 H108       27.0564  -45.7996  -51.2853 H         1 UNK         0.0775 
    109 H109       27.1132  -44.6549  -52.5970 H         1 UNK         0.0775 
    110 H110       27.8389  -42.3772  -52.1144 H         1 UNK         0.0840 
    111 H111       29.3119  -41.9180  -51.3044 H         1 UNK         0.0840 
    112 H112       29.4905  -46.8748  -51.0697 H         1 UNK         0.2987 
    113 H113       31.8445  -47.8701  -51.1478 H         1 UNK         0.0785 
    114 H114       31.1728  -49.6836  -49.4800 H         1 UNK         0.0798 
    115 H115       30.0200  -48.3718  -49.6113 H         1 UNK         0.0798 
    116 H116       29.6808  -49.9070  -50.3905 H         1 UNK         0.0798 
    117 H117       33.0052  -49.3429  -52.2543 H         1 UNK         0.3079 
    118 H118       33.7989  -51.6871  -52.5522 H         1 UNK         0.0794 
    119 H119       32.3017  -53.7227  -52.5932 H         1 UNK         0.0786 
    120 H120       33.3614  -53.6683  -53.9879 H         1 UNK         0.0786 
    121 H121       31.6668  -53.2239  -54.1537 H         1 UNK         0.0786 
    122 H122       32.4755  -50.1278  -54.4791 H         1 UNK         0.3032 
    123 H123       35.1278  -50.0421  -56.8533 H         1 UNK         0.1094 
    124 H124       32.0851  -49.6230  -56.6533 H         1 UNK         0.0794 
    125 H125       33.1210  -49.0900  -57.9711 H         1 UNK         0.0794 
    126 H126       32.8642  -50.8047  -57.6959 H         1 UNK         0.0794 
    127 H127       34.2417  -48.7072  -54.5021 H         1 UNK         0.3016 
@<TRIPOS>BOND
     1    1    2 1    
     2    1   67 1    
     3    1   68 1    
     4    1   69 1    
     5    2    3 2    
     6    2    4 am   BACKBONE|DICT|INTERRES
     7    4    5 1    
     8    4   70 1    
     9    5    6 1    
    10    5   65 1    
    11    5   71 1    
    12    6    7 1    
    13    6   72 1    
    14    6   73 1    
    15    7    8 1    
    16    8    9 1    
    17    8   74 1    
    18    8   75 1    
    19    9   10 ar   
    20    9   14 ar   
    21   10   11 ar   
    22   10   76 1    
    23   11   12 ar   
    24   11   48 1    
    25   12   13 ar   
    26   12   77 1    
    27   13   14 ar   
    28   13   15 1    
    29   14   78 1    
    30   15   16 1    
    31   15   79 1    
    32   15   80 1    
    33   16   17 1    
    34   17   18 1    
    35   17   81 1    
    36   17   82 1    
    37   18   19 1    
    38   18   22 1    
    39   18   83 1    
    40   19   20 am   BACKBONE|DICT|INTERRES
    41   19   21 2    
    42   20   84 1    
    43   20   85 1    
    44   22   23 am   BACKBONE|DICT|INTERRES
    45   22   86 1    
    46   23   24 2    
    47   23   25 1    
    48   25   26 1    
    49   25   27 1    
    50   25   87 1    
    51   26   88 1    
    52   26   89 1    
    53   26   90 1    
    54   27   28 am   BACKBONE|DICT|INTERRES
    55   27   91 1    
    56   28   29 2    
    57   28   30 1    
    58   30   31 1    
    59   30   32 1    
    60   30   92 1    
    61   31   93 1    
    62   31   94 1    
    63   31   95 1    
    64   32   33 am   BACKBONE|DICT|INTERRES
    65   32   96 1    
    66   33   34 2    
    67   33   35 1    
    68   35   36 1    
    69   35   37 1    
    70   35   97 1    
    71   36   98 1    
    72   36   99 1    
    73   36  100 1    
    74   37   38 am   BACKBONE|DICT|INTERRES
    75   37  101 1    
    76   38   39 2    
    77   38   40 1    
    78   40   41 1    
    79   40   42 1    
    80   40  102 1    
    81   41  103 1    
    82   41  104 1    
    83   41  105 1    
    84   42   43 am   BACKBONE|DICT|INTERRES
    85   42  106 1    
    86   43   44 2    
    87   43   45 1    
    88   45   46 1    
    89   45   49 1    
    90   45  107 1    
    91   46   47 1    
    92   46  108 1    
    93   46  109 1    
    94   47   48 1    
    95   48  110 1    
    96   48  111 1    
    97   49   50 am   BACKBONE|DICT|INTERRES
    98   49  112 1    
    99   50   51 2    
   100   50   52 1    
   101   52   53 1    
   102   52   54 1    
   103   52  113 1    
   104   53  114 1    
   105   53  115 1    
   106   53  116 1    
   107   54   55 am   BACKBONE|DICT|INTERRES
   108   54  117 1    
   109   55   56 2    
   110   55   57 1    
   111   57   58 1    
   112   57   59 1    
   113   57  118 1    
   114   58  119 1    
   115   58  120 1    
   116   58  121 1    
   117   59   60 am   BACKBONE|DICT|INTERRES
   118   59  122 1    
   119   60   61 2    
   120   60   62 1    
   121   62   63 1    
   122   62   64 1    
   123   62  123 1    
   124   63  124 1    
   125   63  125 1    
   126   63  126 1    
   127   64   65 am   BACKBONE|DICT|INTERRES
   128   64  127 1    
   129   65   66 2    
@<TRIPOS>SUBSTRUCTURE
     1 UNK         1 GROUP             0       ****    0 ROOT    
