@<TRIPOS>MOLECULE
3R134
127   129    1
SMALL
USER_CHARGES


@<TRIPOS>ATOM
      1 CA         29.5387  -43.9152  -49.6062 C.3       0 UNK        -0.1968 
      2 C          30.9568  -44.4612  -49.6886 C.2       0 UNK         0.4852 
      3 O          31.6320  -44.5674  -48.6632 O.2       0 UNK        -0.5359 
      4 N          31.4128  -44.7997  -50.9008 N.am      1 UNK        -0.4300 
      5 CA         32.7230  -45.4009  -51.1639 C.3       1 UNK         0.0863 
      6 C6         33.1223  -45.2635  -52.6538 C.3       11 UNK        -0.0953 
      7 S7         33.5196  -43.5410  -53.1023 S.3       11 UNK        -0.2369 
      8 C8         32.0222  -43.0043  -54.0014 C.3       11 UNK         0.0226 
      9 C9         31.7076  -43.7912  -55.2744 C.ar      11 UNK        -0.0699 
     10 C10        32.7147  -44.3620  -56.0643 C.ar      11 UNK        -0.0804 
     11 C11        32.3956  -45.0792  -57.2214 C.ar      11 UNK        -0.0871 
     12 C12        31.0586  -45.2052  -57.6026 C.ar      11 UNK        -0.1008 
     13 C13        30.0432  -44.6433  -56.8261 C.ar      11 UNK        -0.0735 
     14 C14        30.3729  -43.9326  -55.6690 C.ar      11 UNK        -0.0945 
     15 C15        28.5902  -44.8705  -57.2053 C.3       11 UNK         0.0169 
     16 S16        28.1080  -43.9475  -58.7038 S.3       11 UNK        -0.2669 
     17 C17        27.1862  -42.4680  -58.1371 C.3       11 UNK        -0.0850 
     18 CA         26.3098  -42.6062  -56.8612 C.3       10 UNK         0.0855 
     19 C          25.4811  -41.3113  -56.6145 C.2       10 UNK         0.5543 
     20 N          24.1548  -41.3627  -56.5962 N.am      10 UNK        -0.7343 
     21 O          26.0557  -40.2407  -56.4329 O.2       10 UNK        -0.5027 
     22 N          25.5272  -43.8553  -56.8537 N.am      10 UNK        -0.4495 
     23 C          25.0699  -44.4539  -55.7488 C.2       10 UNK         0.4903 
     24 O          25.1653  -43.9684  -54.6215 O.2       10 UNK        -0.4860 
     25 CA         24.4395  -45.8469  -55.9018 C.3       9 UNK         0.0227 
     26 CB         22.9315  -45.7533  -56.2074 C.3       9 UNK        -0.1964 
     27 N          25.1434  -46.7417  -56.8339 N.am      9 UNK        -0.4231 
     28 C          25.1802  -46.7150  -58.1761 C.2       9 UNK         0.5014 
     29 O          24.6651  -45.8176  -58.8446 O.2       9 UNK        -0.5270 
     30 CA         25.9060  -47.8681  -58.9094 C.3       8 UNK         0.0284 
     31 CB         26.9153  -47.3442  -59.9458 C.3       8 UNK        -0.1977 
     32 N          26.5846  -48.8133  -58.0157 N.am      8 UNK        -0.4342 
     33 C          25.9743  -49.7798  -57.3111 C.2       8 UNK         0.5039 
     34 O          24.7762  -50.0418  -57.4190 O.2       8 UNK        -0.5547 
     35 CA         26.8160  -50.5609  -56.2795 C.3       7 UNK         0.0281 
     36 CB         27.2099  -51.9360  -56.8415 C.3       7 UNK        -0.1963 
     37 N          28.0268  -49.8632  -55.8350 N.am      7 UNK        -0.4444 
     38 C          28.0665  -48.6546  -55.2525 C.2       7 UNK         0.5104 
     39 O          27.0594  -48.0267  -54.9246 O.2       7 UNK        -0.5100 
     40 CA         29.4507  -48.0018  -55.0674 C.3       6 UNK         0.0396 
     41 CB         29.8831  -48.0758  -53.5974 C.3       6 UNK        -0.1801 
     42 N          30.5111  -48.5585  -55.9191 N.am      6 UNK        -0.4747 
     43 C          30.4900  -48.6153  -57.2634 C.2       6 UNK         0.5012 
     44 O          29.5545  -48.1908  -57.9431 O.2       6 UNK        -0.5003 
     45 CA         31.6533  -49.3351  -57.9797 C.3       5 UNK         0.0782 
     46 C46        32.6095  -48.3485  -58.6973 C.3       11 UNK        -0.0868 
     47 S47        33.7648  -47.4604  -57.5914 S.3       11 UNK        -0.2515 
     48 C48        33.4967  -45.7181  -58.0536 C.3       11 UNK         0.0199 
     49 N          32.3715  -50.2856  -57.1250 N.am      5 UNK        -0.4607 
     50 C          31.8355  -51.3762  -56.5605 C.2       4 UNK         0.5031 
     51 O          30.6762  -51.7424  -56.7568 O.2       4 UNK        -0.5119 
     52 CA         32.7214  -52.1737  -55.5852 C.3       4 UNK         0.0263 
     53 CB         33.2997  -53.4143  -56.2849 C.3       4 UNK        -0.1967 
     54 N          33.8177  -51.4088  -54.9738 N.am      4 UNK        -0.4237 
     55 C          33.6722  -50.3175  -54.2087 C.2       3 UNK         0.4908 
     56 O          32.5911  -49.7636  -54.0007 O.2       3 UNK        -0.5102 
     57 CA         34.9633  -49.7179  -53.6276 C.3       3 UNK         0.0241 
     58 CB         35.5692  -48.6993  -54.6065 C.3       3 UNK        -0.1971 
     59 N          34.7305  -49.0533  -52.3453 N.am      3 UNK        -0.4139 
     60 C          34.4104  -49.6663  -51.1971 C.2       2 UNK         0.5016 
     61 O          34.3339  -50.8897  -51.0721 O.2       2 UNK        -0.5319 
     62 CA         34.1592  -48.7687  -49.9696 C.3       2 UNK         0.0286 
     63 CB         35.3499  -48.8419  -48.9987 C.3       2 UNK        -0.1963 
     64 N          33.9190  -47.3640  -50.3221 N.am      2 UNK        -0.4790 
     65 C          32.7393  -46.8823  -50.7362 C.2       1 UNK         0.5024 
     66 O          31.7148  -47.5629  -50.8193 O.2       1 UNK        -0.4888 
     67 H67        29.0641  -43.8607  -50.5859 H         1 UNK         0.0892 
     68 H68        28.9278  -44.5540  -48.9690 H         1 UNK         0.0892 
     69 H69        29.5466  -42.9134  -49.1778 H         1 UNK         0.0892 
     70 H70        30.8004  -44.7257  -51.6988 H         1 UNK         0.3107 
     71 H71        33.4637  -44.8736  -50.5580 H         1 UNK         0.0773 
     72 H72        34.0164  -45.8503  -52.8720 H         1 UNK         0.0680 
     73 H73        32.3421  -45.6565  -53.3077 H         1 UNK         0.0680 
     74 H74        32.1432  -41.9545  -54.2706 H         1 UNK         0.0650 
     75 H75        31.1776  -43.0487  -53.3126 H         1 UNK         0.0650 
     76 H76        33.7517  -44.2591  -55.7773 H         1 UNK         0.1397 
     77 H77        30.7992  -45.7612  -58.4928 H         1 UNK         0.1363 
     78 H78        29.5861  -43.5003  -55.0659 H         1 UNK         0.1355 
     79 H79        28.4441  -45.9305  -57.4051 H         1 UNK         0.0707 
     80 H80        27.9487  -44.6592  -56.3549 H         1 UNK         0.0707 
     81 H81        27.9132  -41.6658  -57.9961 H         1 UNK         0.1034 
     82 H82        26.5636  -42.1524  -58.9766 H         1 UNK         0.1034 
     83 H83        26.9958  -42.6538  -56.0137 H         1 UNK         0.0482 
     84 H84        23.6269  -40.5200  -56.4327 H         1 UNK         0.3460 
     85 H85        23.6803  -42.2393  -56.7412 H         1 UNK         0.3460 
     86 H86        25.3835  -44.3186  -57.7457 H         1 UNK         0.2989 
     87 H87        24.5366  -46.3324  -54.9293 H         1 UNK         0.0559 
     88 H88        22.7332  -45.2475  -57.1526 H         1 UNK         0.0848 
     89 H89        22.4131  -45.1925  -55.4286 H         1 UNK         0.0848 
     90 H90        22.4742  -46.7416  -56.2532 H         1 UNK         0.0848 
     91 H91        25.6803  -47.4682  -56.3717 H         1 UNK         0.3144 
     92 H92        25.1332  -48.4122  -59.4562 H         1 UNK         0.0727 
     93 H93        27.7451  -46.8186  -59.4758 H         1 UNK         0.0790 
     94 H94        26.4447  -46.6510  -60.6442 H         1 UNK         0.0790 
     95 H95        27.3334  -48.1599  -60.5357 H         1 UNK         0.0790 
     96 H96        27.5821  -48.6677  -57.8842 H         1 UNK         0.3215 
     97 H97        26.1868  -50.7145  -55.4004 H         1 UNK         0.0863 
     98 H98        27.7297  -52.5369  -56.0950 H         1 UNK         0.0808 
     99 H99        27.8639  -51.8436  -57.7098 H         1 UNK         0.0808 
    100 H100       26.3291  -52.4990  -57.1536 H         1 UNK         0.0808 
    101 H101       28.9091  -50.3016  -56.0688 H         1 UNK         0.3118 
    102 H102       29.3467  -46.9492  -55.3293 H         1 UNK         0.0546 
    103 H103       29.1470  -47.6049  -52.9448 H         1 UNK         0.0828 
    104 H104       30.8308  -47.5624  -53.4389 H         1 UNK         0.0828 
    105 H105       30.0048  -49.1068  -53.2631 H         1 UNK         0.0828 
    106 H106       31.3093  -48.9545  -55.4317 H         1 UNK         0.3005 
    107 H107       31.1745  -49.9316  -58.7601 H         1 UNK         0.1257 
    108 H108       32.0419  -47.6397  -59.3024 H         1 UNK         0.0775 
    109 H109       33.2190  -48.9042  -59.4114 H         1 UNK         0.0775 
    110 H110       34.4317  -45.1753  -57.9064 H         1 UNK         0.0840 
    111 H111       33.2707  -45.6353  -59.1176 H         1 UNK         0.0840 
    112 H112       33.3235  -50.0394  -56.8969 H         1 UNK         0.2987 
    113 H113       32.0725  -52.5109  -54.7742 H         1 UNK         0.0785 
    114 H114       32.5063  -54.0198  -56.7259 H         1 UNK         0.0798 
    115 H115       33.8375  -54.0527  -55.5836 H         1 UNK         0.0798 
    116 H116       33.9856  -53.1419  -57.0881 H         1 UNK         0.0798 
    117 H117       34.7479  -51.7783  -55.1114 H         1 UNK         0.3079 
    118 H118       35.6825  -50.5236  -53.4652 H         1 UNK         0.0794 
    119 H119       34.8987  -47.8549  -54.7735 H         1 UNK         0.0786 
    120 H120       35.7684  -49.1541  -55.5777 H         1 UNK         0.0786 
    121 H121       36.5160  -48.3063  -54.2356 H         1 UNK         0.0786 
    122 H122       34.7441  -48.0459  -52.3500 H         1 UNK         0.3032 
    123 H123       33.2777  -49.1628  -49.4580 H         1 UNK         0.1094 
    124 H124       36.2676  -48.4668  -49.4534 H         1 UNK         0.0794 
    125 H125       35.1607  -48.2631  -48.0944 H         1 UNK         0.0794 
    126 H126       35.5377  -49.8708  -48.6881 H         1 UNK         0.0794 
    127 H127       34.7121  -46.7398  -50.2628 H         1 UNK         0.3016 
@<TRIPOS>BOND
     1    1    2 1    
     2    1   67 1    
     3    1   68 1    
     4    1   69 1    
     5    2    3 2    
     6    2    4 am   BACKBONE|DICT|INTERRES
     7    4    5 1    
     8    4   70 1    
     9    5    6 1    
    10    5   65 1    
    11    5   71 1    
    12    6    7 1    
    13    6   72 1    
    14    6   73 1    
    15    7    8 1    
    16    8    9 1    
    17    8   74 1    
    18    8   75 1    
    19    9   10 ar   
    20    9   14 ar   
    21   10   11 ar   
    22   10   76 1    
    23   11   12 ar   
    24   11   48 1    
    25   12   13 ar   
    26   12   77 1    
    27   13   14 ar   
    28   13   15 1    
    29   14   78 1    
    30   15   16 1    
    31   15   79 1    
    32   15   80 1    
    33   16   17 1    
    34   17   18 1    
    35   17   81 1    
    36   17   82 1    
    37   18   19 1    
    38   18   22 1    
    39   18   83 1    
    40   19   20 am   BACKBONE|DICT|INTERRES
    41   19   21 2    
    42   20   84 1    
    43   20   85 1    
    44   22   23 am   BACKBONE|DICT|INTERRES
    45   22   86 1    
    46   23   24 2    
    47   23   25 1    
    48   25   26 1    
    49   25   27 1    
    50   25   87 1    
    51   26   88 1    
    52   26   89 1    
    53   26   90 1    
    54   27   28 am   BACKBONE|DICT|INTERRES
    55   27   91 1    
    56   28   29 2    
    57   28   30 1    
    58   30   31 1    
    59   30   32 1    
    60   30   92 1    
    61   31   93 1    
    62   31   94 1    
    63   31   95 1    
    64   32   33 am   BACKBONE|DICT|INTERRES
    65   32   96 1    
    66   33   34 2    
    67   33   35 1    
    68   35   36 1    
    69   35   37 1    
    70   35   97 1    
    71   36   98 1    
    72   36   99 1    
    73   36  100 1    
    74   37   38 am   BACKBONE|DICT|INTERRES
    75   37  101 1    
    76   38   39 2    
    77   38   40 1    
    78   40   41 1    
    79   40   42 1    
    80   40  102 1    
    81   41  103 1    
    82   41  104 1    
    83   41  105 1    
    84   42   43 am   BACKBONE|DICT|INTERRES
    85   42  106 1    
    86   43   44 2    
    87   43   45 1    
    88   45   46 1    
    89   45   49 1    
    90   45  107 1    
    91   46   47 1    
    92   46  108 1    
    93   46  109 1    
    94   47   48 1    
    95   48  110 1    
    96   48  111 1    
    97   49   50 am   BACKBONE|DICT|INTERRES
    98   49  112 1    
    99   50   51 2    
   100   50   52 1    
   101   52   53 1    
   102   52   54 1    
   103   52  113 1    
   104   53  114 1    
   105   53  115 1    
   106   53  116 1    
   107   54   55 am   BACKBONE|DICT|INTERRES
   108   54  117 1    
   109   55   56 2    
   110   55   57 1    
   111   57   58 1    
   112   57   59 1    
   113   57  118 1    
   114   58  119 1    
   115   58  120 1    
   116   58  121 1    
   117   59   60 am   BACKBONE|DICT|INTERRES
   118   59  122 1    
   119   60   61 2    
   120   60   62 1    
   121   62   63 1    
   122   62   64 1    
   123   62  123 1    
   124   63  124 1    
   125   63  125 1    
   126   63  126 1    
   127   64   65 am   BACKBONE|DICT|INTERRES
   128   64  127 1    
   129   65   66 2    
@<TRIPOS>SUBSTRUCTURE
     1 UNK         1 GROUP             0       ****    0 ROOT    
