@<TRIPOS>MOLECULE
3R134
127   129    1
SMALL
USER_CHARGES


@<TRIPOS>ATOM
      1 CA         28.8135  -44.7272  -53.3170 C.3       0 UNK        -0.1968 
      2 C          29.7849  -44.4249  -52.1902 C.2       0 UNK         0.4852 
      3 O          29.5552  -43.4891  -51.4226 O.2       0 UNK        -0.5359 
      4 N          30.8563  -45.2177  -52.0776 N.am      1 UNK        -0.4300 
      5 CA         31.8323  -45.1182  -50.9910 C.3       1 UNK         0.0863 
      6 C6         32.9033  -44.0133  -51.2018 C.3       11 UNK        -0.0953 
      7 S7         34.0554  -44.2905  -52.5932 S.3       11 UNK        -0.2369 
      8 C8         34.0790  -42.6699  -53.4291 C.3       11 UNK         0.0226 
      9 C9         33.1374  -42.6320  -54.6240 C.ar      11 UNK        -0.0699 
     10 C10        33.4051  -43.4355  -55.7342 C.ar      11 UNK        -0.0804 
     11 C11        32.5492  -43.4340  -56.8383 C.ar      11 UNK        -0.0871 
     12 C12        31.4527  -42.5683  -56.8510 C.ar      11 UNK        -0.1008 
     13 C13        31.1681  -41.7500  -55.7493 C.ar      11 UNK        -0.0735 
     14 C14        32.0170  -41.7947  -54.6361 C.ar      11 UNK        -0.0945 
     15 C15        29.9655  -40.8006  -55.7235 C.3       11 UNK         0.0169 
     16 S16        28.5978  -41.2055  -56.8724 S.3       11 UNK        -0.2669 
     17 C17        28.0618  -42.8224  -56.2205 C.3       11 UNK        -0.0850 
     18 CA         27.3779  -43.7469  -57.2595 C.3       10 UNK         0.0855 
     19 C          28.3286  -44.1871  -58.4011 C.2       10 UNK         0.5543 
     20 N          28.2447  -43.5573  -59.5642 N.am      10 UNK        -0.7343 
     21 O          29.1551  -45.0793  -58.2342 O.2       10 UNK        -0.5027 
     22 N          26.8382  -44.9384  -56.5998 N.am      10 UNK        -0.4495 
     23 C          25.6049  -45.0688  -56.1008 C.2       10 UNK         0.4903 
     24 O          24.7657  -44.1667  -56.1029 O.2       10 UNK        -0.4860 
     25 CA         25.2635  -46.4452  -55.4954 C.3       9 UNK         0.0227 
     26 CB         23.7623  -46.6259  -55.1865 C.3       9 UNK        -0.1964 
     27 N          25.7794  -47.5513  -56.3096 N.am      9 UNK        -0.4231 
     28 C          25.4450  -47.8749  -57.5678 C.2       9 UNK         0.5014 
     29 O          24.5481  -47.3251  -58.2086 O.2       9 UNK        -0.5270 
     30 CA         26.2710  -48.9824  -58.2494 C.3       8 UNK         0.0284 
     31 CB         27.2927  -48.3537  -59.2117 C.3       8 UNK        -0.1977 
     32 N          26.9772  -49.8595  -57.3095 N.am      8 UNK        -0.4342 
     33 C          26.3909  -50.7885  -56.5409 C.2       8 UNK         0.5039 
     34 O          25.1881  -51.0500  -56.5808 O.2       8 UNK        -0.5547 
     35 CA         27.2922  -51.5322  -55.5373 C.3       7 UNK         0.0281 
     36 CB         28.0719  -52.6615  -56.2292 C.3       7 UNK        -0.1963 
     37 N          28.2214  -50.6388  -54.8380 N.am      7 UNK        -0.4444 
     38 C          27.8432  -49.6663  -53.9952 C.2       7 UNK         0.5104 
     39 O          26.6755  -49.4512  -53.6721 O.2       7 UNK        -0.5100 
     40 CA         28.9471  -48.7431  -53.4556 C.3       6 UNK         0.0396 
     41 CB         29.6150  -49.3524  -52.2146 C.3       6 UNK        -0.1801 
     42 N          29.9491  -48.4129  -54.4739 N.am      6 UNK        -0.4747 
     43 C          29.6889  -47.6806  -55.5688 C.2       6 UNK         0.5012 
     44 O          28.6051  -47.1385  -55.7811 O.2       6 UNK        -0.5003 
     45 CA         30.8125  -47.5576  -56.6121 C.3       5 UNK         0.0782 
     46 C46        31.7682  -46.4088  -56.2283 C.3       11 UNK        -0.0868 
     47 S47        33.0855  -46.1207  -57.4622 S.3       11 UNK        -0.2515 
     48 C48        32.7667  -44.4008  -57.9994 C.3       11 UNK         0.0199 
     49 N          31.4988  -48.8373  -56.8028 N.am      5 UNK        -0.4607 
     50 C          30.9302  -49.9072  -57.3743 C.2       4 UNK         0.5031 
     51 O          29.7819  -49.9129  -57.8142 O.2       4 UNK        -0.5119 
     52 CA         31.7559  -51.2015  -57.4360 C.3       4 UNK         0.0263 
     53 CB         32.5581  -51.2623  -58.7452 C.3       4 UNK        -0.1967 
     54 N          32.6619  -51.3738  -56.2994 N.am      4 UNK        -0.4237 
     55 C          32.2878  -51.4732  -55.0160 C.2       3 UNK         0.4908 
     56 O          31.1124  -51.4393  -54.6440 O.2       3 UNK        -0.5102 
     57 CA         33.4120  -51.6371  -53.9709 C.3       3 UNK         0.0241 
     58 CB         34.8388  -51.5537  -54.5627 C.3       3 UNK        -0.1971 
     59 N          33.3043  -50.7101  -52.8373 N.am      3 UNK        -0.4139 
     60 C          33.1644  -49.3773  -52.8835 C.2       2 UNK         0.5016 
     61 O          32.9570  -48.7269  -53.9123 O.2       2 UNK        -0.5319 
     62 CA         33.3073  -48.6453  -51.5436 C.3       2 UNK         0.0286 
     63 CB         34.7866  -48.5903  -51.1118 C.3       2 UNK        -0.1963 
     64 N          32.7779  -47.2893  -51.6736 N.am      2 UNK        -0.4790 
     65 C          32.4157  -46.5016  -50.6516 C.2       1 UNK         0.5024 
     66 O          32.4901  -46.8477  -49.4717 O.2       1 UNK        -0.4888 
     67 H67        29.3419  -45.0248  -54.2209 H         1 UNK         0.0892 
     68 H68        28.1305  -45.5244  -53.0290 H         1 UNK         0.0892 
     69 H69        28.2159  -43.8455  -53.5401 H         1 UNK         0.0892 
     70 H70        30.9764  -45.9939  -52.7103 H         1 UNK         0.3107 
     71 H71        31.2769  -44.8344  -50.0935 H         1 UNK         0.0773 
     72 H72        33.5008  -43.9024  -50.2954 H         1 UNK         0.0680 
     73 H73        32.4015  -43.0544  -51.3369 H         1 UNK         0.0680 
     74 H74        35.0939  -42.4807  -53.7813 H         1 UNK         0.0650 
     75 H75        33.8545  -41.8723  -52.7197 H         1 UNK         0.0650 
     76 H76        34.2622  -44.0949  -55.7198 H         1 UNK         0.1397 
     77 H77        30.8078  -42.5564  -57.7178 H         1 UNK         0.1363 
     78 H78        31.8090  -41.1696  -53.7783 H         1 UNK         0.1355 
     79 H79        29.5556  -40.7573  -54.7130 H         1 UNK         0.0707 
     80 H80        30.3197  -39.7954  -55.9553 H         1 UNK         0.0707 
     81 H81        27.3740  -42.6230  -55.3978 H         1 UNK         0.1034 
     82 H82        28.9194  -43.3360  -55.7878 H         1 UNK         0.1034 
     83 H83        26.5484  -43.1992  -57.7121 H         1 UNK         0.0482 
     84 H84        27.5870  -42.8060  -59.7028 H         1 UNK         0.3460 
     85 H85        28.8608  -43.8299  -60.3132 H         1 UNK         0.3460 
     86 H86        27.4752  -45.7308  -56.5549 H         1 UNK         0.2989 
     87 H87        25.8011  -46.4994  -54.5475 H         1 UNK         0.0559 
     88 H88        23.4193  -45.8781  -54.4706 H         1 UNK         0.0848 
     89 H89        23.5634  -47.6054  -54.7516 H         1 UNK         0.0848 
     90 H90        23.1468  -46.5236  -56.0806 H         1 UNK         0.0848 
     91 H91        26.5774  -48.0321  -55.9133 H         1 UNK         0.3144 
     92 H92        25.5809  -49.5941  -58.8341 H         1 UNK         0.0727 
     93 H93        27.8432  -49.1174  -59.7614 H         1 UNK         0.0790 
     94 H94        28.0179  -47.7357  -58.6802 H         1 UNK         0.0790 
     95 H95        26.7998  -47.7167  -59.9474 H         1 UNK         0.0790 
     96 H96        27.9919  -49.7736  -57.2849 H         1 UNK         0.3215 
     97 H97        26.6436  -51.9842  -54.7836 H         1 UNK         0.0863 
     98 H98        28.7053  -53.1994  -55.5233 H         1 UNK         0.0808 
     99 H99        28.7067  -52.2845  -57.0302 H         1 UNK         0.0808 
    100 H100       27.3894  -53.3876  -56.6726 H         1 UNK         0.0808 
    101 H101       29.2150  -50.7812  -54.9938 H         1 UNK         0.3118 
    102 H102       28.4661  -47.8145  -53.1462 H         1 UNK         0.0546 
    103 H103       30.1762  -50.2555  -52.4540 H         1 UNK         0.0828 
    104 H104       28.8693  -49.6243  -51.4664 H         1 UNK         0.0828 
    105 H105       30.2926  -48.6433  -51.7428 H         1 UNK         0.0828 
    106 H106       30.8678  -48.8343  -54.3829 H         1 UNK         0.3005 
    107 H107       30.3386  -47.2962  -57.5608 H         1 UNK         0.1257 
    108 H108       31.1862  -45.4966  -56.0916 H         1 UNK         0.0775 
    109 H109       32.2500  -46.6013  -55.2690 H         1 UNK         0.0775 
    110 H110       33.6075  -44.0533  -58.6007 H         1 UNK         0.0840 
    111 H111       31.8965  -44.4091  -58.6580 H         1 UNK         0.0840 
    112 H112       32.4326  -48.9092  -56.4229 H         1 UNK         0.2987 
    113 H113       31.0563  -52.0391  -57.4263 H         1 UNK         0.0785 
    114 H114       33.0804  -52.2136  -58.8483 H         1 UNK         0.0798 
    115 H115       33.2978  -50.4627  -58.8042 H         1 UNK         0.0798 
    116 H116       31.9000  -51.1612  -59.6097 H         1 UNK         0.0798 
    117 H117       33.6491  -51.4054  -56.5086 H         1 UNK         0.3079 
    118 H118       33.2846  -52.6392  -53.5587 H         1 UNK         0.0794 
    119 H119       35.0062  -52.3184  -55.3224 H         1 UNK         0.0786 
    120 H120       35.5901  -51.7154  -53.7894 H         1 UNK         0.0786 
    121 H121       35.0391  -50.5789  -55.0104 H         1 UNK         0.0786 
    122 H122       33.4168  -51.1386  -51.9291 H         1 UNK         0.3032 
    123 H123       32.7241  -49.1856  -50.7942 H         1 UNK         0.1094 
    124 H124       35.3920  -48.0378  -51.8316 H         1 UNK         0.0794 
    125 H125       34.9034  -48.1093  -50.1407 H         1 UNK         0.0794 
    126 H126       35.2138  -49.5900  -51.0249 H         1 UNK         0.0794 
    127 H127       32.7401  -46.9558  -52.6284 H         1 UNK         0.3016 
@<TRIPOS>BOND
     1    1    2 1    
     2    1   67 1    
     3    1   68 1    
     4    1   69 1    
     5    2    3 2    
     6    2    4 am   BACKBONE|DICT|INTERRES
     7    4    5 1    
     8    4   70 1    
     9    5    6 1    
    10    5   65 1    
    11    5   71 1    
    12    6    7 1    
    13    6   72 1    
    14    6   73 1    
    15    7    8 1    
    16    8    9 1    
    17    8   74 1    
    18    8   75 1    
    19    9   10 ar   
    20    9   14 ar   
    21   10   11 ar   
    22   10   76 1    
    23   11   12 ar   
    24   11   48 1    
    25   12   13 ar   
    26   12   77 1    
    27   13   14 ar   
    28   13   15 1    
    29   14   78 1    
    30   15   16 1    
    31   15   79 1    
    32   15   80 1    
    33   16   17 1    
    34   17   18 1    
    35   17   81 1    
    36   17   82 1    
    37   18   19 1    
    38   18   22 1    
    39   18   83 1    
    40   19   20 am   BACKBONE|DICT|INTERRES
    41   19   21 2    
    42   20   84 1    
    43   20   85 1    
    44   22   23 am   BACKBONE|DICT|INTERRES
    45   22   86 1    
    46   23   24 2    
    47   23   25 1    
    48   25   26 1    
    49   25   27 1    
    50   25   87 1    
    51   26   88 1    
    52   26   89 1    
    53   26   90 1    
    54   27   28 am   BACKBONE|DICT|INTERRES
    55   27   91 1    
    56   28   29 2    
    57   28   30 1    
    58   30   31 1    
    59   30   32 1    
    60   30   92 1    
    61   31   93 1    
    62   31   94 1    
    63   31   95 1    
    64   32   33 am   BACKBONE|DICT|INTERRES
    65   32   96 1    
    66   33   34 2    
    67   33   35 1    
    68   35   36 1    
    69   35   37 1    
    70   35   97 1    
    71   36   98 1    
    72   36   99 1    
    73   36  100 1    
    74   37   38 am   BACKBONE|DICT|INTERRES
    75   37  101 1    
    76   38   39 2    
    77   38   40 1    
    78   40   41 1    
    79   40   42 1    
    80   40  102 1    
    81   41  103 1    
    82   41  104 1    
    83   41  105 1    
    84   42   43 am   BACKBONE|DICT|INTERRES
    85   42  106 1    
    86   43   44 2    
    87   43   45 1    
    88   45   46 1    
    89   45   49 1    
    90   45  107 1    
    91   46   47 1    
    92   46  108 1    
    93   46  109 1    
    94   47   48 1    
    95   48  110 1    
    96   48  111 1    
    97   49   50 am   BACKBONE|DICT|INTERRES
    98   49  112 1    
    99   50   51 2    
   100   50   52 1    
   101   52   53 1    
   102   52   54 1    
   103   52  113 1    
   104   53  114 1    
   105   53  115 1    
   106   53  116 1    
   107   54   55 am   BACKBONE|DICT|INTERRES
   108   54  117 1    
   109   55   56 2    
   110   55   57 1    
   111   57   58 1    
   112   57   59 1    
   113   57  118 1    
   114   58  119 1    
   115   58  120 1    
   116   58  121 1    
   117   59   60 am   BACKBONE|DICT|INTERRES
   118   59  122 1    
   119   60   61 2    
   120   60   62 1    
   121   62   63 1    
   122   62   64 1    
   123   62  123 1    
   124   63  124 1    
   125   63  125 1    
   126   63  126 1    
   127   64   65 am   BACKBONE|DICT|INTERRES
   128   64  127 1    
   129   65   66 2    
@<TRIPOS>SUBSTRUCTURE
     1 UNK         1 GROUP             0       ****    0 ROOT    
