@<TRIPOS>MOLECULE
3R134
127   129    1
SMALL
USER_CHARGES


@<TRIPOS>ATOM
      1 CA         33.4286  -46.0295  -58.1444 C.3       0 UNK        -0.1968 
      2 C          33.6016  -46.2697  -56.6526 C.2       0 UNK         0.4852 
      3 O          33.1633  -47.3019  -56.1474 O.2       0 UNK        -0.5359 
      4 N          34.2568  -45.3361  -55.9485 N.am      1 UNK        -0.4300 
      5 CA         34.4522  -45.3271  -54.4890 C.3       1 UNK         0.0863 
      6 C6         35.1342  -44.0216  -54.0055 C.3       11 UNK        -0.0953 
      7 S7         34.3684  -42.4972  -54.6547 S.3       11 UNK        -0.2369 
      8 C8         33.5086  -41.8304  -53.1956 C.3       11 UNK         0.0226 
      9 C9         32.0884  -42.3628  -53.0663 C.ar      11 UNK        -0.0699 
     10 C10        31.7278  -43.1946  -52.0008 C.ar      11 UNK        -0.0804 
     11 C11        30.3994  -43.6071  -51.8403 C.ar      11 UNK        -0.0871 
     12 C12        29.4363  -43.2027  -52.7698 C.ar      11 UNK        -0.1008 
     13 C13        29.7887  -42.3822  -53.8445 C.ar      11 UNK        -0.0735 
     14 C14        31.1139  -41.9635  -53.9857 C.ar      11 UNK        -0.0945 
     15 C15        28.7314  -41.9088  -54.8274 C.3       11 UNK         0.0169 
     16 S16        28.7612  -42.8813  -56.3622 S.3       11 UNK        -0.2669 
     17 C17        27.3720  -42.0888  -57.2471 C.3       11 UNK        -0.0850 
     18 CA         26.7247  -42.9822  -58.3375 C.3       10 UNK         0.0855 
     19 C          27.5653  -43.0302  -59.6488 C.2       10 UNK         0.5543 
     20 N          27.9203  -44.1913  -60.1854 N.am      10 UNK        -0.7343 
     21 O          27.8869  -41.9833  -60.2061 O.2       10 UNK        -0.5027 
     22 N          26.3392  -44.2918  -57.7930 N.am      10 UNK        -0.4495 
     23 C          25.3403  -45.0562  -58.2457 C.2       10 UNK         0.4903 
     24 O          24.5547  -44.7049  -59.1277 O.2       10 UNK        -0.4860 
     25 CA         25.2138  -46.4522  -57.6019 C.3       9 UNK         0.0227 
     26 CB         24.2973  -47.3974  -58.4062 C.3       9 UNK        -0.1964 
     27 N          26.5044  -47.1057  -57.3423 N.am      9 UNK        -0.4231 
     28 C          27.4813  -47.3581  -58.2299 C.2       9 UNK         0.5014 
     29 O          27.4799  -46.9601  -59.3953 O.2       9 UNK        -0.5270 
     30 CA         28.6515  -48.2260  -57.7381 C.3       8 UNK         0.0284 
     31 CB         29.6431  -47.3891  -56.9130 C.3       8 UNK        -0.1977 
     32 N          28.1986  -49.3787  -56.9557 N.am      8 UNK        -0.4342 
     33 C          27.4247  -50.3723  -57.4200 C.2       8 UNK         0.5039 
     34 O          27.0805  -50.4876  -58.5968 O.2       8 UNK        -0.5547 
     35 CA         26.9296  -51.4002  -56.3917 C.3       7 UNK         0.0281 
     36 CB         27.9808  -52.4995  -56.1634 C.3       7 UNK        -0.1963 
     37 N          26.5901  -50.7546  -55.1211 N.am      7 UNK        -0.4444 
     38 C          25.4221  -50.1428  -54.8763 C.2       7 UNK         0.5104 
     39 O          24.4760  -50.1359  -55.6637 O.2       7 UNK        -0.5100 
     40 CA         25.2735  -49.4107  -53.5287 C.3       6 UNK         0.0396 
     41 CB         24.5988  -50.3265  -52.4953 C.3       6 UNK        -0.1801 
     42 N          26.5421  -48.9207  -52.9830 N.am      6 UNK        -0.4747 
     43 C          27.2556  -47.9072  -53.4961 C.2       6 UNK         0.5012 
     44 O          26.9020  -47.2513  -54.4767 O.2       6 UNK        -0.5003 
     45 CA         28.6268  -47.6294  -52.8430 C.3       5 UNK         0.0782 
     46 C46        28.4998  -46.6145  -51.6822 C.3       11 UNK        -0.0868 
     47 S47        30.1215  -46.2222  -50.9341 S.3       11 UNK        -0.2515 
     48 C48        29.9956  -44.4341  -50.6275 C.3       11 UNK         0.0199 
     49 N          29.3167  -48.8568  -52.4208 N.am      5 UNK        -0.4607 
     50 C          29.6765  -49.8490  -53.2402 C.2       4 UNK         0.5031 
     51 O          29.3427  -49.9119  -54.4245 O.2       4 UNK        -0.5119 
     52 CA         30.5470  -50.9666  -52.6465 C.3       4 UNK         0.0263 
     53 CB         29.7257  -52.2522  -52.4584 C.3       4 UNK        -0.1967 
     54 N          31.6834  -51.2311  -53.5309 N.am      4 UNK        -0.4237 
     55 C          32.6631  -50.3455  -53.7579 C.2       3 UNK         0.4908 
     56 O          32.7976  -49.3056  -53.1077 O.2       3 UNK        -0.5102 
     57 CA         33.6226  -50.6710  -54.9149 C.3       3 UNK         0.0241 
     58 CB         32.8661  -50.7416  -56.2556 C.3       3 UNK        -0.1971 
     59 N          34.6529  -49.6375  -55.0152 N.am      3 UNK        -0.4139 
     60 C          35.8505  -49.6898  -54.4164 C.2       2 UNK         0.5016 
     61 O          36.2674  -50.6767  -53.8073 O.2       2 UNK        -0.5319 
     62 CA         36.7502  -48.4420  -54.5116 C.3       2 UNK         0.0286 
     63 CB         37.8406  -48.6456  -55.5764 C.3       2 UNK        -0.1963 
     64 N          36.0126  -47.2133  -54.8164 N.am      2 UNK        -0.4790 
     65 C          35.2379  -46.5455  -53.9478 C.2       1 UNK         0.5024 
     66 O          35.1438  -46.8437  -52.7569 O.2       1 UNK        -0.4888 
     67 H67        33.8726  -46.8483  -58.7098 H         1 UNK         0.0892 
     68 H68        32.3694  -45.9783  -58.3943 H         1 UNK         0.0892 
     69 H69        33.8983  -45.1001  -58.4657 H         1 UNK         0.0892 
     70 H70        34.5894  -44.5073  -56.4211 H         1 UNK         0.3107 
     71 H71        33.4571  -45.3730  -54.0405 H         1 UNK         0.0773 
     72 H72        36.1812  -44.0065  -54.3151 H         1 UNK         0.0680 
     73 H73        35.1464  -43.9838  -52.9148 H         1 UNK         0.0680 
     74 H74        33.4635  -40.7448  -53.2933 H         1 UNK         0.0650 
     75 H75        34.0892  -42.0234  -52.2924 H         1 UNK         0.0650 
     76 H76        32.4735  -43.4950  -51.2773 H         1 UNK         0.1397 
     77 H77        28.4059  -43.5048  -52.6460 H         1 UNK         0.1363 
     78 H78        31.3860  -41.3144  -54.8071 H         1 UNK         0.1355 
     79 H79        27.7406  -41.9746  -54.3748 H         1 UNK         0.0707 
     80 H80        28.8935  -40.8558  -55.0636 H         1 UNK         0.0707 
     81 H81        26.6036  -41.8254  -56.5185 H         1 UNK         0.1034 
     82 H82        27.7106  -41.1382  -57.6637 H         1 UNK         0.1034 
     83 H83        25.8021  -42.4767  -58.6297 H         1 UNK         0.0482 
     84 H84        27.6484  -45.0763  -59.7681 H         1 UNK         0.3460 
     85 H85        28.4564  -44.1903  -61.0379 H         1 UNK         0.3460 
     86 H86        26.9519  -44.6621  -57.0807 H         1 UNK         0.2989 
     87 H87        24.7525  -46.2964  -56.6257 H         1 UNK         0.0559 
     88 H88        24.6820  -47.5711  -59.4119 H         1 UNK         0.0848 
     89 H89        23.2935  -46.9828  -58.5066 H         1 UNK         0.0848 
     90 H90        24.1988  -48.3657  -57.9148 H         1 UNK         0.0848 
     91 H91        26.6529  -47.3972  -56.3788 H         1 UNK         0.3144 
     92 H92        29.1761  -48.6099  -58.6154 H         1 UNK         0.0727 
     93 H93        29.1742  -46.9552  -56.0304 H         1 UNK         0.0790 
     94 H94        30.0419  -46.5642  -57.5045 H         1 UNK         0.0790 
     95 H95        30.4902  -47.9893  -56.5799 H         1 UNK         0.0790 
     96 H96        28.5117  -49.4306  -55.9880 H         1 UNK         0.3215 
     97 H97        26.0332  -51.8753  -56.7970 H         1 UNK         0.0863 
     98 H98        27.6398  -53.2293  -55.4291 H         1 UNK         0.0808 
     99 H99        28.9322  -52.0936  -55.8198 H         1 UNK         0.0808 
    100 H100       28.1787  -53.0405  -57.0895 H         1 UNK         0.0808 
    101 H101       27.3415  -50.6540  -54.4511 H         1 UNK         0.3118 
    102 H102       24.6229  -48.5492  -53.6944 H         1 UNK         0.0546 
    103 H103       25.2080  -51.2031  -52.2716 H         1 UNK         0.0828 
    104 H104       23.6358  -50.6848  -52.8620 H         1 UNK         0.0828 
    105 H105       24.4103  -49.7993  -51.5599 H         1 UNK         0.0828 
    106 H106       26.9164  -49.4100  -52.1825 H         1 UNK         0.3005 
    107 H107       29.2497  -47.1712  -53.6146 H         1 UNK         0.1257 
    108 H108       27.8496  -47.0046  -50.8967 H         1 UNK         0.0775 
    109 H109       28.0303  -45.6966  -52.0371 H         1 UNK         0.0775 
    110 H110       28.9831  -44.1813  -50.3088 H         1 UNK         0.0840 
    111 H111       30.6416  -44.1833  -49.7847 H         1 UNK         0.0840 
    112 H112       29.6462  -48.8647  -51.4661 H         1 UNK         0.2987 
    113 H113       30.9307  -50.6504  -51.6740 H         1 UNK         0.0785 
    114 H114       28.8780  -52.0802  -51.7938 H         1 UNK         0.0798 
    115 H115       30.3279  -53.0449  -52.0139 H         1 UNK         0.0798 
    116 H116       29.3285  -52.6240  -53.4033 H         1 UNK         0.0798 
    117 H117       31.6200  -52.0504  -54.1169 H         1 UNK         0.3079 
    118 H118       34.0827  -51.6418  -54.7191 H         1 UNK         0.0794 
    119 H119       32.1591  -51.5715  -56.2725 H         1 UNK         0.0786 
    120 H120       33.5517  -50.8885  -57.0903 H         1 UNK         0.0786 
    121 H121       32.2984  -49.8301  -56.4471 H         1 UNK         0.0786 
    122 H122       34.3430  -48.7545  -55.4112 H         1 UNK         0.3032 
    123 H123       37.2367  -48.3205  -53.5409 H         1 UNK         0.1094 
    124 H124       38.5304  -47.8019  -55.6055 H         1 UNK         0.0794 
    125 H125       38.4320  -49.5374  -55.3633 H         1 UNK         0.0794 
    126 H126       37.4147  -48.7682  -56.5731 H         1 UNK         0.0794 
    127 H127       36.0385  -46.8893  -55.7725 H         1 UNK         0.3016 
@<TRIPOS>BOND
     1    1    2 1    
     2    1   67 1    
     3    1   68 1    
     4    1   69 1    
     5    2    3 2    
     6    2    4 am   BACKBONE|DICT|INTERRES
     7    4    5 1    
     8    4   70 1    
     9    5    6 1    
    10    5   65 1    
    11    5   71 1    
    12    6    7 1    
    13    6   72 1    
    14    6   73 1    
    15    7    8 1    
    16    8    9 1    
    17    8   74 1    
    18    8   75 1    
    19    9   10 ar   
    20    9   14 ar   
    21   10   11 ar   
    22   10   76 1    
    23   11   12 ar   
    24   11   48 1    
    25   12   13 ar   
    26   12   77 1    
    27   13   14 ar   
    28   13   15 1    
    29   14   78 1    
    30   15   16 1    
    31   15   79 1    
    32   15   80 1    
    33   16   17 1    
    34   17   18 1    
    35   17   81 1    
    36   17   82 1    
    37   18   19 1    
    38   18   22 1    
    39   18   83 1    
    40   19   20 am   BACKBONE|DICT|INTERRES
    41   19   21 2    
    42   20   84 1    
    43   20   85 1    
    44   22   23 am   BACKBONE|DICT|INTERRES
    45   22   86 1    
    46   23   24 2    
    47   23   25 1    
    48   25   26 1    
    49   25   27 1    
    50   25   87 1    
    51   26   88 1    
    52   26   89 1    
    53   26   90 1    
    54   27   28 am   BACKBONE|DICT|INTERRES
    55   27   91 1    
    56   28   29 2    
    57   28   30 1    
    58   30   31 1    
    59   30   32 1    
    60   30   92 1    
    61   31   93 1    
    62   31   94 1    
    63   31   95 1    
    64   32   33 am   BACKBONE|DICT|INTERRES
    65   32   96 1    
    66   33   34 2    
    67   33   35 1    
    68   35   36 1    
    69   35   37 1    
    70   35   97 1    
    71   36   98 1    
    72   36   99 1    
    73   36  100 1    
    74   37   38 am   BACKBONE|DICT|INTERRES
    75   37  101 1    
    76   38   39 2    
    77   38   40 1    
    78   40   41 1    
    79   40   42 1    
    80   40  102 1    
    81   41  103 1    
    82   41  104 1    
    83   41  105 1    
    84   42   43 am   BACKBONE|DICT|INTERRES
    85   42  106 1    
    86   43   44 2    
    87   43   45 1    
    88   45   46 1    
    89   45   49 1    
    90   45  107 1    
    91   46   47 1    
    92   46  108 1    
    93   46  109 1    
    94   47   48 1    
    95   48  110 1    
    96   48  111 1    
    97   49   50 am   BACKBONE|DICT|INTERRES
    98   49  112 1    
    99   50   51 2    
   100   50   52 1    
   101   52   53 1    
   102   52   54 1    
   103   52  113 1    
   104   53  114 1    
   105   53  115 1    
   106   53  116 1    
   107   54   55 am   BACKBONE|DICT|INTERRES
   108   54  117 1    
   109   55   56 2    
   110   55   57 1    
   111   57   58 1    
   112   57   59 1    
   113   57  118 1    
   114   58  119 1    
   115   58  120 1    
   116   58  121 1    
   117   59   60 am   BACKBONE|DICT|INTERRES
   118   59  122 1    
   119   60   61 2    
   120   60   62 1    
   121   62   63 1    
   122   62   64 1    
   123   62  123 1    
   124   63  124 1    
   125   63  125 1    
   126   63  126 1    
   127   64   65 am   BACKBONE|DICT|INTERRES
   128   64  127 1    
   129   65   66 2    
@<TRIPOS>SUBSTRUCTURE
     1 UNK         1 GROUP             0       ****    0 ROOT    
