@<TRIPOS>MOLECULE
3R134
127   129    1
SMALL
USER_CHARGES


@<TRIPOS>ATOM
      1 CA         36.1808  -45.5565  -53.8407 C.3       0 UNK        -0.1968 
      2 C          36.1930  -45.5594  -52.3159 C.2       0 UNK         0.4852 
      3 O          37.2037  -45.9355  -51.7241 O.2       0 UNK        -0.5359 
      4 N          35.1127  -45.1604  -51.6326 N.am      1 UNK        -0.4300 
      5 CA         33.8157  -44.7243  -52.1644 C.3       1 UNK         0.0863 
      6 C6         33.5280  -43.2348  -51.8388 C.3       11 UNK        -0.0953 
      7 S7         34.7191  -42.1228  -52.6623 S.3       11 UNK        -0.2369 
      8 C8         33.6340  -41.0277  -53.6407 C.3       11 UNK         0.0226 
      9 C9         32.7411  -41.7443  -54.6526 C.ar      11 UNK        -0.0699 
     10 C10        33.1972  -42.8444  -55.3893 C.ar      11 UNK        -0.0804 
     11 C11        32.3560  -43.4894  -56.3010 C.ar      11 UNK        -0.0871 
     12 C12        31.0675  -42.9951  -56.5174 C.ar      11 UNK        -0.1008 
     13 C13        30.6018  -41.8930  -55.7970 C.ar      11 UNK        -0.0735 
     14 C14        31.4405  -41.2759  -54.8649 C.ar      11 UNK        -0.0945 
     15 C15        29.1997  -41.3559  -56.0371 C.3       11 UNK         0.0169 
     16 S16        27.9926  -42.0146  -54.8419 S.3       11 UNK        -0.2669 
     17 C17        27.7771  -43.7438  -55.3902 C.3       11 UNK        -0.0850 
     18 CA         26.5887  -43.9132  -56.3729 C.3       10 UNK         0.0855 
     19 C          26.9884  -43.5948  -57.8371 C.2       10 UNK         0.5543 
     20 N          26.4351  -42.5421  -58.4230 N.am      10 UNK        -0.7343 
     21 O          27.8252  -44.2739  -58.4279 O.2       10 UNK        -0.5027 
     22 N          26.0258  -45.2632  -56.2864 N.am      10 UNK        -0.4495 
     23 C          24.7653  -45.5754  -56.6123 C.2       10 UNK         0.4903 
     24 O          23.9144  -44.7437  -56.9344 O.2       10 UNK        -0.4860 
     25 CA         24.4026  -47.0701  -56.5600 C.3       9 UNK         0.0227 
     26 CB         22.9726  -47.3717  -57.0574 C.3       9 UNK        -0.1964 
     27 N          25.3883  -47.9066  -57.2516 N.am      9 UNK        -0.4231 
     28 C          25.7240  -47.8777  -58.5518 C.2       9 UNK         0.5014 
     29 O          25.1933  -47.1371  -59.3809 O.2       9 UNK        -0.5270 
     30 CA         26.8467  -48.8250  -59.0247 C.3       8 UNK         0.0284 
     31 CB         28.0844  -48.0120  -59.4410 C.3       8 UNK        -0.1977 
     32 N          27.2464  -49.8253  -58.0296 N.am      8 UNK        -0.4342 
     33 C          26.5100  -50.8811  -57.6551 C.2       8 UNK         0.5039 
     34 O          25.4404  -51.1910  -58.1802 O.2       8 UNK        -0.5547 
     35 CA         27.0269  -51.6948  -56.4545 C.3       7 UNK         0.0281 
     36 CB         28.0356  -52.7602  -56.9112 C.3       7 UNK        -0.1963 
     37 N          27.6304  -50.8560  -55.4123 N.am      7 UNK        -0.4444 
     38 C          26.9807  -49.9125  -54.7139 C.2       7 UNK         0.5104 
     39 O          25.7800  -49.6767  -54.8363 O.2       7 UNK        -0.5100 
     40 CA         27.8214  -49.0360  -53.7730 C.3       6 UNK         0.0396 
     41 CB         28.0818  -49.7403  -52.4320 C.3       6 UNK        -0.1801 
     42 N          29.0873  -48.6488  -54.3963 N.am      6 UNK        -0.4747 
     43 C          29.2006  -47.7295  -55.3677 C.2       6 UNK         0.5012 
     44 O          28.2547  -47.0601  -55.7850 O.2       6 UNK        -0.5003 
     45 CA         30.5993  -47.5472  -55.9924 C.3       5 UNK         0.0782 
     46 C46        31.3686  -46.4215  -55.2640 C.3       11 UNK        -0.0868 
     47 S47        33.0500  -46.1540  -55.9270 S.3       11 UNK        -0.2515 
     48 C48        32.8298  -44.7302  -57.0434 C.3       11 UNK         0.0199 
     49 N          31.3472  -48.8096  -56.0201 N.am      5 UNK        -0.4607 
     50 C          31.0479  -49.8409  -56.8215 C.2       4 UNK         0.5031 
     51 O          30.1126  -49.8305  -57.6198 O.2       4 UNK        -0.5119 
     52 CA         31.8940  -51.1174  -56.6707 C.3       4 UNK         0.0263 
     53 CB         33.1573  -51.0296  -57.5406 C.3       4 UNK        -0.1967 
     54 N          32.2722  -51.3958  -55.2829 N.am      4 UNK        -0.4237 
     55 C          31.4067  -51.5910  -54.2788 C.2       3 UNK         0.4908 
     56 O          30.1855  -51.6188  -54.4286 O.2       3 UNK        -0.5102 
     57 CA         31.9822  -51.7121  -52.8578 C.3       3 UNK         0.0241 
     58 CB         33.4438  -52.2143  -52.8171 C.3       3 UNK        -0.1971 
     59 N          31.8403  -50.4543  -52.1106 N.am      3 UNK        -0.4139 
     60 C          32.3419  -49.2560  -52.4471 C.2       2 UNK         0.5016 
     61 O          32.9797  -49.0445  -53.4838 O.2       2 UNK        -0.5319 
     62 CA         32.0895  -48.0941  -51.4722 C.3       2 UNK         0.0286 
     63 CB         32.3944  -48.4707  -50.0072 C.3       2 UNK        -0.1963 
     64 N          32.9342  -46.9766  -51.8830 N.am      2 UNK        -0.4790 
     65 C          32.7472  -45.6822  -51.6054 C.2       1 UNK         0.5024 
     66 O          31.8150  -45.2593  -50.9202 O.2       1 UNK        -0.4888 
     67 H67        37.1709  -45.7894  -54.2320 H         1 UNK         0.0892 
     68 H68        35.4891  -46.3076  -54.2194 H         1 UNK         0.0892 
     69 H69        35.8962  -44.5799  -54.2291 H         1 UNK         0.0892 
     70 H70        35.1531  -45.1994  -50.6238 H         1 UNK         0.3107 
     71 H71        33.7699  -44.8407  -53.2470 H         1 UNK         0.0773 
     72 H72        33.5781  -43.0563  -50.7632 H         1 UNK         0.0680 
     73 H73        32.5157  -42.9648  -52.1450 H         1 UNK         0.0680 
     74 H74        34.2579  -40.3120  -54.1772 H         1 UNK         0.0650 
     75 H75        33.0274  -40.4467  -52.9442 H         1 UNK         0.0650 
     76 H76        34.2009  -43.2156  -55.2413 H         1 UNK         0.1397 
     77 H77        30.4203  -43.4767  -57.2383 H         1 UNK         0.1363 
     78 H78        31.0776  -40.4226  -54.3080 H         1 UNK         0.1355 
     79 H79        29.2102  -40.2681  -55.9531 H         1 UNK         0.0707 
     80 H80        28.8772  -41.5705  -57.0560 H         1 UNK         0.0707 
     81 H81        27.5877  -44.3226  -54.4846 H         1 UNK         0.1034 
     82 H82        28.7014  -44.1541  -55.7954 H         1 UNK         0.1034 
     83 H83        25.8051  -43.2172  -56.0645 H         1 UNK         0.0482 
     84 H84        25.7483  -41.9820  -57.9423 H         1 UNK         0.3460 
     85 H85        26.6924  -42.3164  -59.3709 H         1 UNK         0.3460 
     86 H86        26.6931  -46.0078  -56.0998 H         1 UNK         0.2989 
     87 H87        24.4475  -47.3547  -55.5081 H         1 UNK         0.0559 
     88 H88        22.2319  -46.8383  -56.4604 H         1 UNK         0.0848 
     89 H89        22.7437  -48.4347  -56.9825 H         1 UNK         0.0848 
     90 H90        22.8297  -47.0698  -58.0954 H         1 UNK         0.0848 
     91 H91        25.8726  -48.5664  -56.6548 H         1 UNK         0.3144 
     92 H92        26.4743  -49.3541  -59.9042 H         1 UNK         0.0727 
     93 H93        28.8724  -48.6559  -59.8319 H         1 UNK         0.0790 
     94 H94        28.4937  -47.4475  -58.6027 H         1 UNK         0.0790 
     95 H95        27.8367  -47.2930  -60.2231 H         1 UNK         0.0790 
     96 H96        28.1693  -49.7099  -57.6181 H         1 UNK         0.3215 
     97 H97        26.1705  -52.2050  -56.0085 H         1 UNK         0.0863 
     98 H98        28.3816  -53.3659  -56.0733 H         1 UNK         0.0808 
     99 H99        28.9094  -52.3124  -57.3842 H         1 UNK         0.0808 
    100 H100       27.5840  -53.4372  -57.6375 H         1 UNK         0.0808 
    101 H101       28.6099  -51.0289  -55.1937 H         1 UNK         0.3118 
    102 H102       27.2510  -48.1279  -53.5647 H         1 UNK         0.0546 
    103 H103       28.6377  -50.6695  -52.5543 H         1 UNK         0.0828 
    104 H104       27.1413  -49.9908  -51.9396 H         1 UNK         0.0828 
    105 H105       28.6411  -49.1002  -51.7499 H         1 UNK         0.0828 
    106 H106       29.8978  -49.2063  -54.1686 H         1 UNK         0.3005 
    107 H107       30.4451  -47.2305  -57.0265 H         1 UNK         0.1257 
    108 H108       30.8045  -45.4895  -55.2978 H         1 UNK         0.0775 
    109 H109       31.4701  -46.6629  -54.2063 H         1 UNK         0.0775 
    110 H110       33.7802  -44.5146  -57.5335 H         1 UNK         0.0840 
    111 H111       32.1318  -45.0041  -57.8362 H         1 UNK         0.0840 
    112 H112       32.1193  -48.8919  -55.3658 H         1 UNK         0.2987 
    113 H113       31.2926  -51.9571  -57.0237 H         1 UNK         0.0785 
    114 H114       33.7263  -51.9590  -57.5100 H         1 UNK         0.0798 
    115 H115       33.8148  -50.2208  -57.2184 H         1 UNK         0.0798 
    116 H116       32.8991  -50.8437  -58.5843 H         1 UNK         0.0798 
    117 H117       33.2540  -51.3322  -55.0549 H         1 UNK         0.3079 
    118 H118       31.3672  -52.4530  -52.3445 H         1 UNK         0.0794 
    119 H119       33.5544  -53.1482  -53.3702 H         1 UNK         0.0786 
    120 H120       33.7559  -52.4134  -51.7918 H         1 UNK         0.0786 
    121 H121       34.1481  -51.4950  -53.2361 H         1 UNK         0.0786 
    122 H122       31.3122  -50.5236  -51.2520 H         1 UNK         0.3032 
    123 H123       31.0411  -47.8018  -51.5666 H         1 UNK         0.1094 
    124 H124       33.4151  -48.8378  -49.8916 H         1 UNK         0.0794 
    125 H125       32.2737  -47.6148  -49.3429 H         1 UNK         0.0794 
    126 H126       31.7210  -49.2463  -49.6418 H         1 UNK         0.0794 
    127 H127       33.6818  -47.2500  -52.5101 H         1 UNK         0.3016 
@<TRIPOS>BOND
     1    1    2 1    
     2    1   67 1    
     3    1   68 1    
     4    1   69 1    
     5    2    3 2    
     6    2    4 am   BACKBONE|DICT|INTERRES
     7    4    5 1    
     8    4   70 1    
     9    5    6 1    
    10    5   65 1    
    11    5   71 1    
    12    6    7 1    
    13    6   72 1    
    14    6   73 1    
    15    7    8 1    
    16    8    9 1    
    17    8   74 1    
    18    8   75 1    
    19    9   10 ar   
    20    9   14 ar   
    21   10   11 ar   
    22   10   76 1    
    23   11   12 ar   
    24   11   48 1    
    25   12   13 ar   
    26   12   77 1    
    27   13   14 ar   
    28   13   15 1    
    29   14   78 1    
    30   15   16 1    
    31   15   79 1    
    32   15   80 1    
    33   16   17 1    
    34   17   18 1    
    35   17   81 1    
    36   17   82 1    
    37   18   19 1    
    38   18   22 1    
    39   18   83 1    
    40   19   20 am   BACKBONE|DICT|INTERRES
    41   19   21 2    
    42   20   84 1    
    43   20   85 1    
    44   22   23 am   BACKBONE|DICT|INTERRES
    45   22   86 1    
    46   23   24 2    
    47   23   25 1    
    48   25   26 1    
    49   25   27 1    
    50   25   87 1    
    51   26   88 1    
    52   26   89 1    
    53   26   90 1    
    54   27   28 am   BACKBONE|DICT|INTERRES
    55   27   91 1    
    56   28   29 2    
    57   28   30 1    
    58   30   31 1    
    59   30   32 1    
    60   30   92 1    
    61   31   93 1    
    62   31   94 1    
    63   31   95 1    
    64   32   33 am   BACKBONE|DICT|INTERRES
    65   32   96 1    
    66   33   34 2    
    67   33   35 1    
    68   35   36 1    
    69   35   37 1    
    70   35   97 1    
    71   36   98 1    
    72   36   99 1    
    73   36  100 1    
    74   37   38 am   BACKBONE|DICT|INTERRES
    75   37  101 1    
    76   38   39 2    
    77   38   40 1    
    78   40   41 1    
    79   40   42 1    
    80   40  102 1    
    81   41  103 1    
    82   41  104 1    
    83   41  105 1    
    84   42   43 am   BACKBONE|DICT|INTERRES
    85   42  106 1    
    86   43   44 2    
    87   43   45 1    
    88   45   46 1    
    89   45   49 1    
    90   45  107 1    
    91   46   47 1    
    92   46  108 1    
    93   46  109 1    
    94   47   48 1    
    95   48  110 1    
    96   48  111 1    
    97   49   50 am   BACKBONE|DICT|INTERRES
    98   49  112 1    
    99   50   51 2    
   100   50   52 1    
   101   52   53 1    
   102   52   54 1    
   103   52  113 1    
   104   53  114 1    
   105   53  115 1    
   106   53  116 1    
   107   54   55 am   BACKBONE|DICT|INTERRES
   108   54  117 1    
   109   55   56 2    
   110   55   57 1    
   111   57   58 1    
   112   57   59 1    
   113   57  118 1    
   114   58  119 1    
   115   58  120 1    
   116   58  121 1    
   117   59   60 am   BACKBONE|DICT|INTERRES
   118   59  122 1    
   119   60   61 2    
   120   60   62 1    
   121   62   63 1    
   122   62   64 1    
   123   62  123 1    
   124   63  124 1    
   125   63  125 1    
   126   63  126 1    
   127   64   65 am   BACKBONE|DICT|INTERRES
   128   64  127 1    
   129   65   66 2    
@<TRIPOS>SUBSTRUCTURE
     1 UNK         1 GROUP             0       ****    0 ROOT    
