@<TRIPOS>MOLECULE
3R134
127   129    1
SMALL
USER_CHARGES


@<TRIPOS>ATOM
      1 CA         37.4093  -48.3457  -54.0055 C.3       0 UNK        -0.1968 
      2 C          36.0630  -47.7086  -54.3124 C.2       0 UNK         0.4852 
      3 O          35.1718  -48.3833  -54.8288 O.2       0 UNK        -0.5359 
      4 N          35.8958  -46.4193  -53.9860 N.am      1 UNK        -0.4300 
      5 CA         34.6669  -45.6512  -54.2241 C.3       1 UNK         0.0863 
      6 C6         34.8795  -44.1407  -53.9549 C.3       11 UNK        -0.0953 
      7 S7         33.7479  -43.0958  -54.9337 S.3       11 UNK        -0.2369 
      8 C8         32.8540  -42.1542  -53.6554 C.3       11 UNK         0.0226 
      9 C9         31.3495  -42.2641  -53.8450 C.ar      11 UNK        -0.0699 
     10 C10        30.5825  -43.0465  -52.9773 C.ar      11 UNK        -0.0804 
     11 C11        29.1973  -43.1361  -53.1435 C.ar      11 UNK        -0.0871 
     12 C12        28.5858  -42.4599  -54.2028 C.ar      11 UNK        -0.1008 
     13 C13        29.3417  -41.6878  -55.0898 C.ar      11 UNK        -0.0735 
     14 C14        30.7222  -41.5732  -54.8860 C.ar      11 UNK        -0.0945 
     15 C15        28.6315  -40.9698  -56.2355 C.3       11 UNK         0.0169 
     16 S16        29.5907  -40.8201  -57.7845 S.3       11 UNK        -0.2669 
     17 C17        30.1340  -42.5268  -58.1521 C.3       11 UNK        -0.0850 
     18 CA         29.0180  -43.4132  -58.7688 C.3       10 UNK         0.0855 
     19 C          29.6170  -44.5373  -59.6695 C.2       10 UNK         0.5543 
     20 N          29.3765  -45.8185  -59.4179 N.am      10 UNK        -0.7343 
     21 O          30.3139  -44.2347  -60.6350 O.2       10 UNK        -0.5027 
     22 N          28.1048  -43.9004  -57.7246 N.am      10 UNK        -0.4495 
     23 C          26.8409  -44.2830  -57.9278 C.2       10 UNK         0.4903 
     24 O          26.2383  -44.1657  -58.9966 O.2       10 UNK        -0.4860 
     25 CA         26.1363  -44.9318  -56.7234 C.3       9 UNK         0.0227 
     26 CB         24.9819  -44.0511  -56.2196 C.3       9 UNK        -0.1964 
     27 N          25.6374  -46.2749  -57.0389 N.am      9 UNK        -0.4231 
     28 C          26.4077  -47.2931  -57.4456 C.2       9 UNK         0.5014 
     29 O          27.6261  -47.2046  -57.6035 O.2       9 UNK        -0.5270 
     30 CA         25.7080  -48.6173  -57.7639 C.3       8 UNK         0.0284 
     31 CB         25.3941  -48.7058  -59.2703 C.3       8 UNK        -0.1977 
     32 N          26.5712  -49.7239  -57.3491 N.am      8 UNK        -0.4342 
     33 C          26.1766  -50.9945  -57.1909 C.2       8 UNK         0.5039 
     34 O          25.0322  -51.3898  -57.4195 O.2       8 UNK        -0.5547 
     35 CA         27.2177  -51.9935  -56.6617 C.3       7 UNK         0.0281 
     36 CB         28.3110  -52.2809  -57.7053 C.3       7 UNK        -0.1963 
     37 N          27.8140  -51.4995  -55.4205 N.am      7 UNK        -0.4444 
     38 C          27.2884  -51.7003  -54.2027 C.2       7 UNK         0.5104 
     39 O          26.3281  -52.4416  -53.9885 O.2       7 UNK        -0.5100 
     40 CA         27.9147  -50.9434  -53.0134 C.3       6 UNK         0.0396 
     41 CB         28.8971  -51.8460  -52.2510 C.3       6 UNK        -0.1801 
     42 N          28.5871  -49.6963  -53.3851 N.am      6 UNK        -0.4747 
     43 C          27.9805  -48.6333  -53.9345 C.2       6 UNK         0.5012 
     44 O          26.7670  -48.5696  -54.1353 O.2       6 UNK        -0.5003 
     45 CA         28.8881  -47.4668  -54.3793 C.3       5 UNK         0.0782 
     46 C46        29.0951  -46.4478  -53.2344 C.3       11 UNK        -0.0868 
     47 S47        27.6201  -45.4152  -52.9492 S.3       11 UNK        -0.2515 
     48 C48        28.3551  -43.9463  -52.1682 C.3       11 UNK         0.0199 
     49 N          30.1670  -47.9077  -54.9545 N.am      5 UNK        -0.4607 
     50 C          30.3117  -48.7579  -55.9835 C.2       4 UNK         0.5031 
     51 O          29.3746  -49.3057  -56.5612 O.2       4 UNK        -0.5119 
     52 CA         31.7482  -49.1246  -56.3885 C.3       4 UNK         0.0263 
     53 CB         32.4354  -47.9652  -57.1282 C.3       4 UNK        -0.1967 
     54 N          32.5447  -49.5361  -55.2315 N.am      4 UNK        -0.4237 
     55 C          32.2840  -50.6198  -54.4842 C.2       3 UNK         0.4908 
     56 O          31.4383  -51.4659  -54.7742 O.2       3 UNK        -0.5102 
     57 CA         33.0594  -50.7598  -53.1647 C.3       3 UNK         0.0241 
     58 CB         34.4085  -51.4636  -53.3837 C.3       3 UNK        -0.1971 
     59 N          33.2647  -49.4667  -52.5061 N.am      3 UNK        -0.4139 
     60 C          32.2853  -48.7408  -51.9463 C.2       2 UNK         0.5016 
     61 O          31.1122  -49.1083  -51.8836 O.2       2 UNK        -0.5319 
     62 CA         32.6725  -47.3574  -51.3930 C.3       2 UNK         0.0286 
     63 CB         33.1766  -47.4744  -49.9463 C.3       2 UNK        -0.1963 
     64 N          33.6814  -46.6763  -52.2112 N.am      2 UNK        -0.4790 
     65 C          33.4560  -46.2196  -53.4527 C.2       1 UNK         0.5024 
     66 O          32.3620  -46.2943  -54.0091 O.2       1 UNK        -0.4888 
     67 H67        37.8681  -48.7087  -54.9247 H         1 UNK         0.0892 
     68 H68        38.0973  -47.6421  -53.5373 H         1 UNK         0.0892 
     69 H69        37.2787  -49.1929  -53.3328 H         1 UNK         0.0892 
     70 H70        36.6604  -45.9126  -53.5625 H         1 UNK         0.3107 
     71 H71        34.4444  -45.7751  -55.2867 H         1 UNK         0.0773 
     72 H72        35.8869  -43.8491  -54.2566 H         1 UNK         0.0680 
     73 H73        34.8190  -43.9134  -52.8895 H         1 UNK         0.0680 
     74 H74        33.1313  -42.4894  -52.6557 H         1 UNK         0.0650 
     75 H75        33.1533  -41.1070  -53.7164 H         1 UNK         0.0650 
     76 H76        31.0636  -43.5786  -52.1680 H         1 UNK         0.1397 
     77 H77        27.5146  -42.5371  -54.3321 H         1 UNK         0.1363 
     78 H78        31.3191  -40.9635  -55.5501 H         1 UNK         0.1355 
     79 H79        28.3693  -39.9663  -55.8984 H         1 UNK         0.0707 
     80 H80        27.6879  -41.4654  -56.4668 H         1 UNK         0.0707 
     81 H81        30.5625  -42.9970  -57.2661 H         1 UNK         0.1034 
     82 H82        30.9704  -42.4183  -58.8456 H         1 UNK         0.1034 
     83 H83        28.4385  -42.7887  -59.4515 H         1 UNK         0.0482 
     84 H84        29.7751  -46.5140  -60.0266 H         1 UNK         0.3460 
     85 H85        28.7727  -46.1150  -58.6557 H         1 UNK         0.3460 
     86 H86        28.5203  -44.0556  -56.8182 H         1 UNK         0.2989 
     87 H87        26.8562  -45.0361  -55.9093 H         1 UNK         0.0559 
     88 H88        24.1998  -43.9400  -56.9718 H         1 UNK         0.0848 
     89 H89        25.3365  -43.0505  -55.9688 H         1 UNK         0.0848 
     90 H90        24.5288  -44.4667  -55.3193 H         1 UNK         0.0848 
     91 H91        24.6398  -46.4150  -56.9716 H         1 UNK         0.3144 
     92 H92        24.7788  -48.6687  -57.1925 H         1 UNK         0.0727 
     93 H93        26.3062  -48.6995  -59.8686 H         1 UNK         0.0790 
     94 H94        24.7859  -47.8601  -59.5939 H         1 UNK         0.0790 
     95 H95        24.8399  -49.6119  -59.5143 H         1 UNK         0.0790 
     96 H96        27.5322  -49.4586  -57.1293 H         1 UNK         0.3215 
     97 H97        26.7048  -52.9372  -56.4624 H         1 UNK         0.0863 
     98 H98        28.8503  -51.3817  -58.0018 H         1 UNK         0.0808 
     99 H99        27.8771  -52.7088  -58.6098 H         1 UNK         0.0808 
    100 H100       29.0406  -52.9963  -57.3256 H         1 UNK         0.0808 
    101 H101       28.5760  -50.8361  -55.5202 H         1 UNK         0.3118 
    102 H102       27.1022  -50.6815  -52.3327 H         1 UNK         0.0546 
    103 H103       29.3049  -51.3405  -51.3754 H         1 UNK         0.0828 
    104 H104       29.7325  -52.1546  -52.8790 H         1 UNK         0.0828 
    105 H105       28.4018  -52.7526  -51.9011 H         1 UNK         0.0828 
    106 H106       29.5820  -49.6356  -53.1907 H         1 UNK         0.3005 
    107 H107       28.3675  -46.9549  -55.1881 H         1 UNK         0.1257 
    108 H108       29.9157  -45.7794  -53.4905 H         1 UNK         0.0775 
    109 H109       29.3836  -46.9396  -52.3037 H         1 UNK         0.0775 
    110 H110       27.5534  -43.3154  -51.7819 H         1 UNK         0.0840 
    111 H111       28.9431  -44.2556  -51.3026 H         1 UNK         0.0840 
    112 H112       31.0012  -47.4824  -54.5584 H         1 UNK         0.2987 
    113 H113       31.6937  -49.9743  -57.0724 H         1 UNK         0.0785 
    114 H114       33.4366  -48.2440  -57.4571 H         1 UNK         0.0798 
    115 H115       31.8675  -47.6814  -58.0153 H         1 UNK         0.0798 
    116 H116       32.5257  -47.0761  -56.5050 H         1 UNK         0.0798 
    117 H117       33.3279  -48.9421  -54.9700 H         1 UNK         0.3079 
    118 H118       32.4600  -51.3827  -52.4968 H         1 UNK         0.0794 
    119 H119       34.9397  -51.6058  -52.4425 H         1 UNK         0.0786 
    120 H120       35.0588  -50.9035  -54.0556 H         1 UNK         0.0786 
    121 H121       34.2622  -52.4507  -53.8244 H         1 UNK         0.0786 
    122 H122       34.1909  -49.0692  -52.5579 H         1 UNK         0.3032 
    123 H123       31.7688  -46.7435  -51.3899 H         1 UNK         0.1094 
    124 H124       32.4330  -47.9616  -49.3137 H         1 UNK         0.0794 
    125 H125       34.0940  -48.0609  -49.8813 H         1 UNK         0.0794 
    126 H126       33.3731  -46.4930  -49.5142 H         1 UNK         0.0794 
    127 H127       34.6091  -46.5860  -51.8222 H         1 UNK         0.3016 
@<TRIPOS>BOND
     1    1    2 1    
     2    1   67 1    
     3    1   68 1    
     4    1   69 1    
     5    2    3 2    
     6    2    4 am   BACKBONE|DICT|INTERRES
     7    4    5 1    
     8    4   70 1    
     9    5    6 1    
    10    5   65 1    
    11    5   71 1    
    12    6    7 1    
    13    6   72 1    
    14    6   73 1    
    15    7    8 1    
    16    8    9 1    
    17    8   74 1    
    18    8   75 1    
    19    9   10 ar   
    20    9   14 ar   
    21   10   11 ar   
    22   10   76 1    
    23   11   12 ar   
    24   11   48 1    
    25   12   13 ar   
    26   12   77 1    
    27   13   14 ar   
    28   13   15 1    
    29   14   78 1    
    30   15   16 1    
    31   15   79 1    
    32   15   80 1    
    33   16   17 1    
    34   17   18 1    
    35   17   81 1    
    36   17   82 1    
    37   18   19 1    
    38   18   22 1    
    39   18   83 1    
    40   19   20 am   BACKBONE|DICT|INTERRES
    41   19   21 2    
    42   20   84 1    
    43   20   85 1    
    44   22   23 am   BACKBONE|DICT|INTERRES
    45   22   86 1    
    46   23   24 2    
    47   23   25 1    
    48   25   26 1    
    49   25   27 1    
    50   25   87 1    
    51   26   88 1    
    52   26   89 1    
    53   26   90 1    
    54   27   28 am   BACKBONE|DICT|INTERRES
    55   27   91 1    
    56   28   29 2    
    57   28   30 1    
    58   30   31 1    
    59   30   32 1    
    60   30   92 1    
    61   31   93 1    
    62   31   94 1    
    63   31   95 1    
    64   32   33 am   BACKBONE|DICT|INTERRES
    65   32   96 1    
    66   33   34 2    
    67   33   35 1    
    68   35   36 1    
    69   35   37 1    
    70   35   97 1    
    71   36   98 1    
    72   36   99 1    
    73   36  100 1    
    74   37   38 am   BACKBONE|DICT|INTERRES
    75   37  101 1    
    76   38   39 2    
    77   38   40 1    
    78   40   41 1    
    79   40   42 1    
    80   40  102 1    
    81   41  103 1    
    82   41  104 1    
    83   41  105 1    
    84   42   43 am   BACKBONE|DICT|INTERRES
    85   42  106 1    
    86   43   44 2    
    87   43   45 1    
    88   45   46 1    
    89   45   49 1    
    90   45  107 1    
    91   46   47 1    
    92   46  108 1    
    93   46  109 1    
    94   47   48 1    
    95   48  110 1    
    96   48  111 1    
    97   49   50 am   BACKBONE|DICT|INTERRES
    98   49  112 1    
    99   50   51 2    
   100   50   52 1    
   101   52   53 1    
   102   52   54 1    
   103   52  113 1    
   104   53  114 1    
   105   53  115 1    
   106   53  116 1    
   107   54   55 am   BACKBONE|DICT|INTERRES
   108   54  117 1    
   109   55   56 2    
   110   55   57 1    
   111   57   58 1    
   112   57   59 1    
   113   57  118 1    
   114   58  119 1    
   115   58  120 1    
   116   58  121 1    
   117   59   60 am   BACKBONE|DICT|INTERRES
   118   59  122 1    
   119   60   61 2    
   120   60   62 1    
   121   62   63 1    
   122   62   64 1    
   123   62  123 1    
   124   63  124 1    
   125   63  125 1    
   126   63  126 1    
   127   64   65 am   BACKBONE|DICT|INTERRES
   128   64  127 1    
   129   65   66 2    
@<TRIPOS>SUBSTRUCTURE
     1 UNK         1 GROUP             0       ****    0 ROOT    
