@<TRIPOS>MOLECULE
3R134
127   129    1
SMALL
USER_CHARGES


@<TRIPOS>ATOM
      1 CA         33.1421  -43.7201  -47.9871 C.3       0 UNK        -0.1968 
      2 C          33.7118  -43.5305  -49.3855 C.2       0 UNK         0.4852 
      3 O          33.8577  -42.3937  -49.8372 O.2       0 UNK        -0.5359 
      4 N          34.0357  -44.6320  -50.0695 N.am      1 UNK        -0.4300 
      5 CA         34.6192  -44.6664  -51.4079 C.3       1 UNK         0.0863 
      6 C6         33.5519  -44.4600  -52.5153 C.3       11 UNK        -0.0953 
      7 S7         34.2703  -43.8660  -54.0836 S.3       11 UNK        -0.2369 
      8 C8         32.8664  -42.9479  -54.7918 C.3       11 UNK         0.0226 
      9 C9         31.7240  -43.8817  -55.1610 C.ar      11 UNK        -0.0699 
     10 C10        30.6138  -44.0112  -54.3209 C.ar      11 UNK        -0.0804 
     11 C11        29.5791  -44.8937  -54.6440 C.ar      11 UNK        -0.0871 
     12 C12        29.6688  -45.6573  -55.8112 C.ar      11 UNK        -0.1008 
     13 C13        30.7611  -45.5179  -56.6730 C.ar      11 UNK        -0.0735 
     14 C14        31.7836  -44.6242  -56.3432 C.ar      11 UNK        -0.0945 
     15 C15        30.8471  -46.3377  -57.9541 C.3       11 UNK         0.0169 
     16 S16        29.3871  -46.1453  -59.0262 S.3       11 UNK        -0.2669 
     17 C17        29.3698  -44.3510  -59.3790 C.3       11 UNK        -0.0850 
     18 CA         28.4626  -43.5266  -58.4211 C.3       10 UNK         0.0855 
     19 C          28.4277  -42.0273  -58.8372 C.2       10 UNK         0.5543 
     20 N          27.2719  -41.4437  -59.1301 N.am      10 UNK        -0.7343 
     21 O          29.4706  -41.3807  -58.8944 O.2       10 UNK        -0.5027 
     22 N          27.1418  -44.1519  -58.2288 N.am      10 UNK        -0.4495 
     23 C          26.3529  -43.9679  -57.1621 C.2       10 UNK         0.4903 
     24 O          26.6109  -43.1887  -56.2447 O.2       10 UNK        -0.4860 
     25 CA         25.0468  -44.7847  -57.0953 C.3       9 UNK         0.0227 
     26 CB         23.8448  -43.8995  -57.4644 C.3       9 UNK        -0.1964 
     27 N          25.0325  -45.9891  -57.9356 N.am      9 UNK        -0.4231 
     28 C          25.7922  -47.0741  -57.7327 C.2       9 UNK         0.5014 
     29 O          26.6093  -47.1795  -56.8151 O.2       9 UNK        -0.5270 
     30 CA         25.6160  -48.2291  -58.7286 C.3       8 UNK         0.0284 
     31 CB         26.0887  -47.8282  -60.1433 C.3       8 UNK        -0.1977 
     32 N          26.3770  -49.3703  -58.2274 N.am      8 UNK        -0.4342 
     33 C          26.3815  -50.6173  -58.7098 C.2       8 UNK         0.5039 
     34 O          25.7103  -50.9897  -59.6733 O.2       8 UNK        -0.5547 
     35 CA         27.2846  -51.6269  -57.9830 C.3       7 UNK         0.0281 
     36 CB         28.7577  -51.4204  -58.3742 C.3       7 UNK        -0.1963 
     37 N          27.1433  -51.5514  -56.5268 N.am      7 UNK        -0.4444 
     38 C          26.0755  -52.0079  -55.8510 C.2       7 UNK         0.5104 
     39 O          25.1172  -52.5656  -56.3867 O.2       7 UNK        -0.5100 
     40 CA         26.0675  -51.8328  -54.3191 C.3       6 UNK         0.0396 
     41 CB         26.5049  -53.1350  -53.6294 C.3       6 UNK        -0.1801 
     42 N          26.9268  -50.7398  -53.8648 N.am      6 UNK        -0.4747 
     43 C          26.6787  -49.4365  -54.0600 C.2       6 UNK         0.5012 
     44 O          25.6068  -49.0172  -54.4957 O.2       6 UNK        -0.5003 
     45 CA         27.8182  -48.4410  -53.7419 C.3       5 UNK         0.0782 
     46 C46        27.3883  -47.4221  -52.6595 C.3       11 UNK        -0.0868 
     47 S47        28.6535  -46.1427  -52.3571 S.3       11 UNK        -0.2515 
     48 C48        28.3577  -44.9992  -53.7434 C.3       11 UNK         0.0199 
     49 N          29.0895  -49.1041  -53.4120 N.am      5 UNK        -0.4607 
     50 C          29.8713  -49.7312  -54.2981 C.2       4 UNK         0.5031 
     51 O          29.5961  -49.8416  -55.4943 O.2       4 UNK        -0.5119 
     52 CA         31.1155  -50.4338  -53.7398 C.3       4 UNK         0.0263 
     53 CB         30.9564  -51.9610  -53.8361 C.3       4 UNK        -0.1967 
     54 N          32.3122  -50.0244  -54.4714 N.am      4 UNK        -0.4237 
     55 C          32.9883  -48.8962  -54.2255 C.2       3 UNK         0.4908 
     56 O          32.6791  -48.0882  -53.3469 O.2       3 UNK        -0.5102 
     57 CA         34.2058  -48.6248  -55.1220 C.3       3 UNK         0.0241 
     58 CB         33.7846  -47.8810  -56.3975 C.3       3 UNK        -0.1971 
     59 N          35.1892  -47.8143  -54.4056 N.am      3 UNK        -0.4139 
     60 C          36.1772  -48.3057  -53.6468 C.2       2 UNK         0.5016 
     61 O          36.4315  -49.5066  -53.5416 O.2       2 UNK        -0.5319 
     62 CA         37.0317  -47.2854  -52.8726 C.3       2 UNK         0.0286 
     63 CB         38.2785  -46.9005  -53.6855 C.3       2 UNK        -0.1963 
     64 N          36.2895  -46.0703  -52.5222 N.am      2 UNK        -0.4790 
     65 C          35.3617  -46.0059  -51.5584 C.2       1 UNK         0.5024 
     66 O          35.0850  -46.9490  -50.8107 O.2       1 UNK        -0.4888 
     67 H67        33.7785  -43.2275  -47.2524 H         1 UNK         0.0892 
     68 H68        32.1466  -43.2814  -47.9251 H         1 UNK         0.0892 
     69 H69        33.0654  -44.7734  -47.7175 H         1 UNK         0.0892 
     70 H70        33.9465  -45.5507  -49.6506 H         1 UNK         0.3107 
     71 H71        35.3636  -43.8686  -51.4631 H         1 UNK         0.0773 
     72 H72        32.8253  -43.7152  -52.1882 H         1 UNK         0.0680 
     73 H73        32.9786  -45.3712  -52.6993 H         1 UNK         0.0680 
     74 H74        33.2052  -42.4158  -55.6818 H         1 UNK         0.0650 
     75 H75        32.5340  -42.1842  -54.0869 H         1 UNK         0.0650 
     76 H76        30.5566  -43.4304  -53.4106 H         1 UNK         0.1397 
     77 H77        28.8751  -46.3399  -56.0746 H         1 UNK         0.1363 
     78 H78        32.6397  -44.5178  -56.9953 H         1 UNK         0.1355 
     79 H79        30.9398  -47.3910  -57.6864 H         1 UNK         0.0707 
     80 H80        31.7412  -46.0823  -58.5249 H         1 UNK         0.0707 
     81 H81        30.3942  -43.9745  -59.3496 H         1 UNK         0.1034 
     82 H82        29.0355  -44.2254  -60.4104 H         1 UNK         0.1034 
     83 H83        28.9504  -43.5254  -57.4460 H         1 UNK         0.0482 
     84 H84        26.4125  -41.9660  -59.0779 H         1 UNK         0.3460 
     85 H85        27.2601  -40.4717  -59.3963 H         1 UNK         0.3460 
     86 H86        26.8628  -44.8213  -58.9292 H         1 UNK         0.2989 
     87 H87        24.9249  -45.1058  -56.0585 H         1 UNK         0.0559 
     88 H88        23.8909  -43.5648  -58.5014 H         1 UNK         0.0848 
     89 H89        23.8086  -43.0078  -56.8365 H         1 UNK         0.0848 
     90 H90        22.9023  -44.4286  -57.3225 H         1 UNK         0.0848 
     91 H91        24.3862  -45.9897  -58.7119 H         1 UNK         0.3144 
     92 H92        24.5587  -48.4995  -58.7540 H         1 UNK         0.0727 
     93 H93        25.8721  -48.6078  -60.8733 H         1 UNK         0.0790 
     94 H94        27.1619  -47.6430  -60.1703 H         1 UNK         0.0790 
     95 H95        25.5908  -46.9245  -60.4954 H         1 UNK         0.0790 
     96 H96        26.9309  -49.1422  -57.4089 H         1 UNK         0.3215 
     97 H97        26.9901  -52.6291  -58.3030 H         1 UNK         0.0863 
     98 H98        29.4037  -52.1551  -57.8933 H         1 UNK         0.0808 
     99 H99        29.1174  -50.4281  -58.0988 H         1 UNK         0.0808 
    100 H100       28.8916  -51.5260  -59.4516 H         1 UNK         0.0808 
    101 H101       27.8901  -51.0903  -56.0199 H         1 UNK         0.3118 
    102 H102       25.0418  -51.6126  -54.0155 H         1 UNK         0.0546 
    103 H103       25.8618  -53.9659  -53.9229 H         1 UNK         0.0828 
    104 H104       26.4449  -53.0501  -52.5442 H         1 UNK         0.0828 
    105 H105       27.5281  -53.4084  -53.8904 H         1 UNK         0.0828 
    106 H106       27.8207  -50.9948  -53.4719 H         1 UNK         0.3005 
    107 H107       27.9761  -47.8867  -54.6679 H         1 UNK         0.1257 
    108 H108       27.1920  -47.9330  -51.7151 H         1 UNK         0.0775 
    109 H109       26.4536  -46.9289  -52.9340 H         1 UNK         0.0775 
    110 H110       27.4909  -45.3124  -54.3281 H         1 UNK         0.0840 
    111 H111       28.1073  -44.0149  -53.3449 H         1 UNK         0.0840 
    112 H112       29.3847  -49.0402  -52.4482 H         1 UNK         0.2987 
    113 H113       31.2370  -50.1725  -52.6859 H         1 UNK         0.0785 
    114 H114       30.0866  -52.3007  -53.2724 H         1 UNK         0.0798 
    115 H115       31.8256  -52.4762  -53.4268 H         1 UNK         0.0798 
    116 H116       30.8259  -52.2921  -54.8675 H         1 UNK         0.0798 
    117 H117       32.5906  -50.6094  -55.2460 H         1 UNK         0.3079 
    118 H118       34.6553  -49.5784  -55.4082 H         1 UNK         0.0794 
    119 H119       33.3301  -46.9195  -56.1622 H         1 UNK         0.0786 
    120 H120       33.0572  -48.4598  -56.9677 H         1 UNK         0.0786 
    121 H121       34.6376  -47.6975  -57.0509 H         1 UNK         0.0786 
    122 H122       35.0129  -46.8207  -54.3726 H         1 UNK         0.3032 
    123 H123       37.3610  -47.7694  -51.9498 H         1 UNK         0.1094 
    124 H124       38.0157  -46.4018  -54.6193 H         1 UNK         0.0794 
    125 H125       38.9312  -46.2349  -53.1202 H         1 UNK         0.0794 
    126 H126       38.8643  -47.7845  -53.9420 H         1 UNK         0.0794 
    127 H127       36.4547  -45.2514  -53.0920 H         1 UNK         0.3016 
@<TRIPOS>BOND
     1    1    2 1    
     2    1   67 1    
     3    1   68 1    
     4    1   69 1    
     5    2    3 2    
     6    2    4 am   BACKBONE|DICT|INTERRES
     7    4    5 1    
     8    4   70 1    
     9    5    6 1    
    10    5   65 1    
    11    5   71 1    
    12    6    7 1    
    13    6   72 1    
    14    6   73 1    
    15    7    8 1    
    16    8    9 1    
    17    8   74 1    
    18    8   75 1    
    19    9   10 ar   
    20    9   14 ar   
    21   10   11 ar   
    22   10   76 1    
    23   11   12 ar   
    24   11   48 1    
    25   12   13 ar   
    26   12   77 1    
    27   13   14 ar   
    28   13   15 1    
    29   14   78 1    
    30   15   16 1    
    31   15   79 1    
    32   15   80 1    
    33   16   17 1    
    34   17   18 1    
    35   17   81 1    
    36   17   82 1    
    37   18   19 1    
    38   18   22 1    
    39   18   83 1    
    40   19   20 am   BACKBONE|DICT|INTERRES
    41   19   21 2    
    42   20   84 1    
    43   20   85 1    
    44   22   23 am   BACKBONE|DICT|INTERRES
    45   22   86 1    
    46   23   24 2    
    47   23   25 1    
    48   25   26 1    
    49   25   27 1    
    50   25   87 1    
    51   26   88 1    
    52   26   89 1    
    53   26   90 1    
    54   27   28 am   BACKBONE|DICT|INTERRES
    55   27   91 1    
    56   28   29 2    
    57   28   30 1    
    58   30   31 1    
    59   30   32 1    
    60   30   92 1    
    61   31   93 1    
    62   31   94 1    
    63   31   95 1    
    64   32   33 am   BACKBONE|DICT|INTERRES
    65   32   96 1    
    66   33   34 2    
    67   33   35 1    
    68   35   36 1    
    69   35   37 1    
    70   35   97 1    
    71   36   98 1    
    72   36   99 1    
    73   36  100 1    
    74   37   38 am   BACKBONE|DICT|INTERRES
    75   37  101 1    
    76   38   39 2    
    77   38   40 1    
    78   40   41 1    
    79   40   42 1    
    80   40  102 1    
    81   41  103 1    
    82   41  104 1    
    83   41  105 1    
    84   42   43 am   BACKBONE|DICT|INTERRES
    85   42  106 1    
    86   43   44 2    
    87   43   45 1    
    88   45   46 1    
    89   45   49 1    
    90   45  107 1    
    91   46   47 1    
    92   46  108 1    
    93   46  109 1    
    94   47   48 1    
    95   48  110 1    
    96   48  111 1    
    97   49   50 am   BACKBONE|DICT|INTERRES
    98   49  112 1    
    99   50   51 2    
   100   50   52 1    
   101   52   53 1    
   102   52   54 1    
   103   52  113 1    
   104   53  114 1    
   105   53  115 1    
   106   53  116 1    
   107   54   55 am   BACKBONE|DICT|INTERRES
   108   54  117 1    
   109   55   56 2    
   110   55   57 1    
   111   57   58 1    
   112   57   59 1    
   113   57  118 1    
   114   58  119 1    
   115   58  120 1    
   116   58  121 1    
   117   59   60 am   BACKBONE|DICT|INTERRES
   118   59  122 1    
   119   60   61 2    
   120   60   62 1    
   121   62   63 1    
   122   62   64 1    
   123   62  123 1    
   124   63  124 1    
   125   63  125 1    
   126   63  126 1    
   127   64   65 am   BACKBONE|DICT|INTERRES
   128   64  127 1    
   129   65   66 2    
@<TRIPOS>SUBSTRUCTURE
     1 UNK         1 GROUP             0       ****    0 ROOT    
