@<TRIPOS>MOLECULE
3R134
127   129    1
SMALL
USER_CHARGES


@<TRIPOS>ATOM
      1 CA         32.2710  -45.5036  -50.8555 C.3       0 UNK        -0.1968 
      2 C          33.6922  -45.3706  -51.3736 C.2       0 UNK         0.4852 
      3 O          34.5434  -46.1873  -51.0206 O.2       0 UNK        -0.5359 
      4 N          33.9488  -44.3635  -52.2218 N.am      1 UNK        -0.4300 
      5 CA         35.2714  -43.9811  -52.7457 C.3       1 UNK         0.0863 
      6 C6         35.2341  -42.7026  -53.6291 C.3       11 UNK        -0.0953 
      7 S7         34.1436  -41.3780  -52.9944 S.3       11 UNK        -0.2369 
      8 C8         32.8025  -41.3604  -54.2334 C.3       11 UNK         0.0226 
      9 C9         32.0191  -42.6659  -54.2430 C.ar      11 UNK        -0.0699 
     10 C10        30.9759  -42.8729  -53.3345 C.ar      11 UNK        -0.0804 
     11 C11        30.2820  -44.0885  -53.3078 C.ar      11 UNK        -0.0871 
     12 C12        30.6741  -45.1078  -54.1828 C.ar      11 UNK        -0.1008 
     13 C13        31.6775  -44.8976  -55.1282 C.ar      11 UNK        -0.0735 
     14 C14        32.3428  -43.6713  -55.1585 C.ar      11 UNK        -0.0945 
     15 C15        32.0202  -45.9851  -56.1371 C.3       11 UNK         0.0169 
     16 S16        30.6128  -46.4038  -57.2154 S.3       11 UNK        -0.2669 
     17 C17        30.1252  -44.7635  -57.8551 C.3       11 UNK        -0.0850 
     18 CA         28.8059  -44.2659  -57.2092 C.3       10 UNK         0.0855 
     19 C          28.5654  -42.7684  -57.5359 C.2       10 UNK         0.5543 
     20 N          29.0965  -41.8708  -56.7168 N.am      10 UNK        -0.7343 
     21 O          27.9526  -42.4155  -58.5420 O.2       10 UNK        -0.5027 
     22 N          27.6900  -45.1373  -57.5919 N.am      10 UNK        -0.4495 
     23 C          26.4376  -45.0928  -57.1283 C.2       10 UNK         0.4903 
     24 O          26.0482  -44.2882  -56.2819 O.2       10 UNK        -0.4860 
     25 CA         25.4433  -46.1385  -57.6758 C.3       9 UNK         0.0227 
     26 CB         24.5188  -45.5179  -58.7427 C.3       9 UNK        -0.1964 
     27 N          26.0558  -47.3953  -58.1479 N.am      9 UNK        -0.4231 
     28 C          26.8288  -47.5986  -59.2268 C.2       9 UNK         0.5014 
     29 O          27.1476  -46.7022  -60.0086 O.2       9 UNK        -0.5270 
     30 CA         27.3801  -49.0142  -59.4671 C.3       8 UNK         0.0284 
     31 CB         28.9050  -48.9848  -59.6799 C.3       8 UNK        -0.1977 
     32 N          27.0940  -49.9366  -58.3669 N.am      8 UNK        -0.4342 
     33 C          26.2029  -50.9338  -58.4126 C.2       8 UNK         0.5039 
     34 O          25.4177  -51.1129  -59.3443 O.2       8 UNK        -0.5547 
     35 CA         26.2001  -51.9112  -57.2304 C.3       7 UNK         0.0281 
     36 CB         27.4234  -52.8418  -57.3008 C.3       7 UNK        -0.1963 
     37 N          26.1999  -51.2149  -55.9433 N.am      7 UNK        -0.4444 
     38 C          25.1281  -51.0887  -55.1493 C.2       7 UNK         0.5104 
     39 O          24.0032  -51.4912  -55.4481 O.2       7 UNK        -0.5100 
     40 CA         25.3378  -50.4337  -53.7704 C.3       6 UNK         0.0396 
     41 CB         25.3808  -51.5089  -52.6724 C.3       6 UNK        -0.1801 
     42 N          26.5502  -49.6167  -53.6806 N.am      6 UNK        -0.4747 
     43 C          26.6880  -48.4057  -54.2374 C.2       6 UNK         0.5012 
     44 O          25.8038  -47.8538  -54.8899 O.2       6 UNK        -0.5003 
     45 CA         28.0582  -47.7196  -54.0638 C.3       5 UNK         0.0782 
     46 C46        28.1104  -46.8983  -52.7450 C.3       11 UNK        -0.0868 
     47 S47        27.6775  -45.1439  -53.0039 S.3       11 UNK        -0.2515 
     48 C48        29.1335  -44.2797  -52.3154 C.3       11 UNK         0.0199 
     49 N          29.1930  -48.6492  -54.1635 N.am      5 UNK        -0.4607 
     50 C          29.4784  -49.4364  -55.2068 C.2       4 UNK         0.5031 
     51 O          28.7332  -49.5415  -56.1821 O.2       4 UNK        -0.5119 
     52 CA         30.7778  -50.2726  -55.1630 C.3       4 UNK         0.0263 
     53 CB         31.3129  -50.5472  -56.5816 C.3       4 UNK        -0.1967 
     54 N          31.8850  -49.7391  -54.3550 N.am      4 UNK        -0.4237 
     55 C          31.9446  -49.6116  -53.0245 C.2       3 UNK         0.4908 
     56 O          30.9709  -49.7663  -52.2875 O.2       3 UNK        -0.5102 
     57 CA         33.3078  -49.2738  -52.3858 C.3       3 UNK         0.0241 
     58 CB         34.0817  -50.5677  -52.0688 C.3       3 UNK        -0.1971 
     59 N          34.1688  -48.3172  -53.1016 N.am      3 UNK        -0.4139 
     60 C          34.7285  -48.4098  -54.3193 C.2       2 UNK         0.5016 
     61 O          34.5222  -49.3424  -55.0967 O.2       2 UNK        -0.5319 
     62 CA         35.6527  -47.2541  -54.7459 C.3       2 UNK         0.0286 
     63 CB         35.7616  -47.1038  -56.2750 C.3       2 UNK        -0.1963 
     64 N          35.2054  -45.9928  -54.1513 N.am      2 UNK        -0.4790 
     65 C          35.9890  -45.1246  -53.4970 C.2       1 UNK         0.5024 
     66 O          37.2163  -45.2120  -53.4423 O.2       1 UNK        -0.4888 
     67 H67        31.6900  -46.1549  -51.5076 H         1 UNK         0.0892 
     68 H68        31.7840  -44.5310  -50.7980 H         1 UNK         0.0892 
     69 H69        32.2703  -45.9345  -49.8546 H         1 UNK         0.0892 
     70 H70        33.1973  -43.7436  -52.4954 H         1 UNK         0.3107 
     71 H71        35.8818  -43.7543  -51.8691 H         1 UNK         0.0773 
     72 H72        34.9504  -42.9371  -54.6547 H         1 UNK         0.0680 
     73 H73        36.2407  -42.2870  -53.7037 H         1 UNK         0.0680 
     74 H74        32.1302  -40.5299  -54.0130 H         1 UNK         0.0650 
     75 H75        33.2229  -41.1570  -55.2197 H         1 UNK         0.0650 
     76 H76        30.7105  -42.0848  -52.6424 H         1 UNK         0.1397 
     77 H77        30.1751  -46.0606  -54.1754 H         1 UNK         0.1363 
     78 H78        33.1201  -43.5027  -55.8909 H         1 UNK         0.1355 
     79 H79        32.3382  -46.8845  -55.6090 H         1 UNK         0.0707 
     80 H80        32.8550  -45.6758  -56.7668 H         1 UNK         0.0707 
     81 H81        30.0165  -44.8314  -58.9392 H         1 UNK         0.1034 
     82 H82        30.9380  -44.0552  -57.6861 H         1 UNK         0.1034 
     83 H83        28.8948  -44.3454  -56.1251 H         1 UNK         0.0482 
     84 H84        28.9714  -40.8905  -56.9143 H         1 UNK         0.3460 
     85 H85        29.6120  -42.1584  -55.8991 H         1 UNK         0.3460 
     86 H86        27.8751  -45.7832  -58.3492 H         1 UNK         0.2989 
     87 H87        24.8079  -46.4234  -56.8368 H         1 UNK         0.0559 
     88 H88        25.0763  -45.1471  -59.6031 H         1 UNK         0.0848 
     89 H89        23.9676  -44.6717  -58.3307 H         1 UNK         0.0848 
     90 H90        23.7845  -46.2389  -59.1016 H         1 UNK         0.0848 
     91 H91        25.9006  -48.1911  -57.5440 H         1 UNK         0.3144 
     92 H92        26.9219  -49.3734  -60.3907 H         1 UNK         0.0727 
     93 H93        29.2896  -49.9774  -59.9145 H         1 UNK         0.0790 
     94 H94        29.4271  -48.6288  -58.7917 H         1 UNK         0.0790 
     95 H95        29.1806  -48.3297  -60.5073 H         1 UNK         0.0790 
     96 H96        27.6998  -49.8453  -57.5492 H         1 UNK         0.3215 
     97 H97        25.3078  -52.5349  -57.3222 H         1 UNK         0.0863 
     98 H98        27.3908  -53.5959  -56.5143 H         1 UNK         0.0808 
     99 H99        28.3607  -52.2938  -57.1987 H         1 UNK         0.0808 
    100 H100       27.4571  -53.3710  -58.2542 H         1 UNK         0.0808 
    101 H101       27.0721  -50.7946  -55.6479 H         1 UNK         0.3118 
    102 H102       24.4754  -49.7910  -53.5800 H         1 UNK         0.0546 
    103 H103       24.4752  -52.1171  -52.6856 H         1 UNK         0.0828 
    104 H104       25.4525  -51.0621  -51.6806 H         1 UNK         0.0828 
    105 H105       26.2277  -52.1844  -52.8002 H         1 UNK         0.0828 
    106 H106       27.3304  -50.0034  -53.1679 H         1 UNK         0.3005 
    107 H107       28.1626  -47.0420  -54.9155 H         1 UNK         0.1257 
    108 H108       29.1069  -46.9455  -52.3038 H         1 UNK         0.0775 
    109 H109       27.4522  -47.3098  -51.9767 H         1 UNK         0.0775 
    110 H110       28.7892  -43.3052  -51.9656 H         1 UNK         0.0840 
    111 H111       29.4878  -44.8042  -51.4286 H         1 UNK         0.0840 
    112 H112       29.8055  -48.7236  -53.3571 H         1 UNK         0.2987 
    113 H113       30.4987  -51.2325  -54.7247 H         1 UNK         0.0785 
    114 H114       30.5715  -51.0549  -57.1998 H         1 UNK         0.0798 
    115 H115       32.1967  -51.1850  -56.5576 H         1 UNK         0.0798 
    116 H116       31.5821  -49.6206  -57.0906 H         1 UNK         0.0798 
    117 H117       32.7669  -49.5997  -54.8468 H         1 UNK         0.3079 
    118 H118       33.0812  -48.7923  -51.4328 H         1 UNK         0.0794 
    119 H119       34.3627  -51.1060  -52.9747 H         1 UNK         0.0786 
    120 H120       33.4791  -51.2456  -51.4625 H         1 UNK         0.0786 
    121 H121       34.9924  -50.3568  -51.5082 H         1 UNK         0.0786 
    122 H122       34.4282  -47.5090  -52.5425 H         1 UNK         0.3032 
    123 H123       36.6425  -47.5128  -54.3623 H         1 UNK         0.1094 
    124 H124       36.3989  -46.2623  -56.5470 H         1 UNK         0.0794 
    125 H125       36.1992  -47.9967  -56.7234 H         1 UNK         0.0794 
    126 H126       34.7886  -46.9539  -56.7400 H         1 UNK         0.0794 
    127 H127       34.2085  -45.8277  -54.1410 H         1 UNK         0.3016 
@<TRIPOS>BOND
     1    1    2 1    
     2    1   67 1    
     3    1   68 1    
     4    1   69 1    
     5    2    3 2    
     6    2    4 am   BACKBONE|DICT|INTERRES
     7    4    5 1    
     8    4   70 1    
     9    5    6 1    
    10    5   65 1    
    11    5   71 1    
    12    6    7 1    
    13    6   72 1    
    14    6   73 1    
    15    7    8 1    
    16    8    9 1    
    17    8   74 1    
    18    8   75 1    
    19    9   10 ar   
    20    9   14 ar   
    21   10   11 ar   
    22   10   76 1    
    23   11   12 ar   
    24   11   48 1    
    25   12   13 ar   
    26   12   77 1    
    27   13   14 ar   
    28   13   15 1    
    29   14   78 1    
    30   15   16 1    
    31   15   79 1    
    32   15   80 1    
    33   16   17 1    
    34   17   18 1    
    35   17   81 1    
    36   17   82 1    
    37   18   19 1    
    38   18   22 1    
    39   18   83 1    
    40   19   20 am   BACKBONE|DICT|INTERRES
    41   19   21 2    
    42   20   84 1    
    43   20   85 1    
    44   22   23 am   BACKBONE|DICT|INTERRES
    45   22   86 1    
    46   23   24 2    
    47   23   25 1    
    48   25   26 1    
    49   25   27 1    
    50   25   87 1    
    51   26   88 1    
    52   26   89 1    
    53   26   90 1    
    54   27   28 am   BACKBONE|DICT|INTERRES
    55   27   91 1    
    56   28   29 2    
    57   28   30 1    
    58   30   31 1    
    59   30   32 1    
    60   30   92 1    
    61   31   93 1    
    62   31   94 1    
    63   31   95 1    
    64   32   33 am   BACKBONE|DICT|INTERRES
    65   32   96 1    
    66   33   34 2    
    67   33   35 1    
    68   35   36 1    
    69   35   37 1    
    70   35   97 1    
    71   36   98 1    
    72   36   99 1    
    73   36  100 1    
    74   37   38 am   BACKBONE|DICT|INTERRES
    75   37  101 1    
    76   38   39 2    
    77   38   40 1    
    78   40   41 1    
    79   40   42 1    
    80   40  102 1    
    81   41  103 1    
    82   41  104 1    
    83   41  105 1    
    84   42   43 am   BACKBONE|DICT|INTERRES
    85   42  106 1    
    86   43   44 2    
    87   43   45 1    
    88   45   46 1    
    89   45   49 1    
    90   45  107 1    
    91   46   47 1    
    92   46  108 1    
    93   46  109 1    
    94   47   48 1    
    95   48  110 1    
    96   48  111 1    
    97   49   50 am   BACKBONE|DICT|INTERRES
    98   49  112 1    
    99   50   51 2    
   100   50   52 1    
   101   52   53 1    
   102   52   54 1    
   103   52  113 1    
   104   53  114 1    
   105   53  115 1    
   106   53  116 1    
   107   54   55 am   BACKBONE|DICT|INTERRES
   108   54  117 1    
   109   55   56 2    
   110   55   57 1    
   111   57   58 1    
   112   57   59 1    
   113   57  118 1    
   114   58  119 1    
   115   58  120 1    
   116   58  121 1    
   117   59   60 am   BACKBONE|DICT|INTERRES
   118   59  122 1    
   119   60   61 2    
   120   60   62 1    
   121   62   63 1    
   122   62   64 1    
   123   62  123 1    
   124   63  124 1    
   125   63  125 1    
   126   63  126 1    
   127   64   65 am   BACKBONE|DICT|INTERRES
   128   64  127 1    
   129   65   66 2    
@<TRIPOS>SUBSTRUCTURE
     1 UNK         1 GROUP             0       ****    0 ROOT    
