@<TRIPOS>MOLECULE
3R134
127   129    1
SMALL
USER_CHARGES


@<TRIPOS>ATOM
      1 CA         37.6266  -45.2928  -50.9215 C.3       0 UNK        -0.1968 
      2 C          36.2160  -45.4693  -51.4643 C.2       0 UNK         0.4852 
      3 O          35.2522  -45.2224  -50.7387 O.2       0 UNK        -0.5359 
      4 N          36.0970  -45.9056  -52.7279 N.am      1 UNK        -0.4300 
      5 CA         34.8475  -46.1154  -53.4792 C.3       1 UNK         0.0863 
      6 C6         34.0149  -44.8208  -53.6786 C.3       11 UNK        -0.0953 
      7 S7         34.8938  -43.5244  -54.6106 S.3       11 UNK        -0.2369 
      8 C8         33.9513  -42.0407  -54.1229 C.3       11 UNK         0.0226 
      9 C9         32.4485  -42.2393  -54.2763 C.ar      11 UNK        -0.0699 
     10 C10        31.6534  -42.4650  -53.1487 C.ar      11 UNK        -0.0804 
     11 C11        30.2828  -42.7082  -53.2778 C.ar      11 UNK        -0.0871 
     12 C12        29.7032  -42.6979  -54.5509 C.ar      11 UNK        -0.1008 
     13 C13        30.4895  -42.4768  -55.6863 C.ar      11 UNK        -0.0735 
     14 C14        31.8599  -42.2399  -55.5435 C.ar      11 UNK        -0.0945 
     15 C15        29.8667  -42.5377  -57.0700 C.3       11 UNK         0.0169 
     16 S16        29.8886  -44.2462  -57.6848 S.3       11 UNK        -0.2669 
     17 C17        29.0499  -44.0610  -59.2956 C.3       11 UNK        -0.0850 
     18 CA         27.4995  -44.0723  -59.2015 C.3       10 UNK         0.0855 
     19 C          26.8644  -44.0518  -60.6236 C.2       10 UNK         0.5543 
     20 N          26.1536  -45.0887  -61.0540 N.am      10 UNK        -0.7343 
     21 O          27.0228  -43.0731  -61.3488 O.2       10 UNK        -0.5027 
     22 N          27.0138  -45.1505  -58.3299 N.am      10 UNK        -0.4495 
     23 C          25.7852  -45.2385  -57.8078 C.2       10 UNK         0.4903 
     24 O          24.9148  -44.3787  -57.9501 O.2       10 UNK        -0.4860 
     25 CA         25.4924  -46.5058  -56.9814 C.3       9 UNK         0.0227 
     26 CB         23.9914  -46.8597  -56.9381 C.3       9 UNK        -0.1964 
     27 N          26.2897  -47.6672  -57.3988 N.am      9 UNK        -0.4231 
     28 C          26.2965  -48.2700  -58.6006 C.2       9 UNK         0.5014 
     29 O          25.6275  -47.8940  -59.5642 O.2       9 UNK        -0.5270 
     30 CA         27.2301  -49.4814  -58.7633 C.3       8 UNK         0.0284 
     31 CB         28.5336  -49.0607  -59.4642 C.3       8 UNK        -0.1977 
     32 N          27.5460  -50.0778  -57.4628 N.am      8 UNK        -0.4342 
     33 C          26.8968  -51.1186  -56.9259 C.2       8 UNK         0.5039 
     34 O          26.0651  -51.7990  -57.5280 O.2       8 UNK        -0.5547 
     35 CA         27.2038  -51.4280  -55.4516 C.3       7 UNK         0.0281 
     36 CB         28.6507  -51.9154  -55.2712 C.3       7 UNK        -0.1963 
     37 N          26.9669  -50.2755  -54.5797 N.am      7 UNK        -0.4444 
     38 C          25.7811  -49.7051  -54.3291 C.2       7 UNK         0.5104 
     39 O          24.7177  -50.1112  -54.7965 O.2       7 UNK        -0.5100 
     40 CA         25.7614  -48.4640  -53.4102 C.3       6 UNK         0.0396 
     41 CB         25.5828  -48.8730  -51.9355 C.3       6 UNK        -0.1801 
     42 N          26.8955  -47.5397  -53.5805 N.am      6 UNK        -0.4747 
     43 C          28.1954  -47.7536  -53.3305 C.2       6 UNK         0.5012 
     44 O          28.6392  -48.7960  -52.8437 O.2       6 UNK        -0.5003 
     45 CA         29.1751  -46.6448  -53.7649 C.3       5 UNK         0.0782 
     46 C46        29.6678  -45.8042  -52.5606 C.3       11 UNK        -0.0868 
     47 S47        28.4454  -44.5124  -52.1376 S.3       11 UNK        -0.2515 
     48 C48        29.4471  -42.9884  -52.0327 C.3       11 UNK         0.0199 
     49 N          30.2797  -47.2173  -54.5377 N.am      5 UNK        -0.4607 
     50 C          30.1306  -47.8303  -55.7203 C.2       4 UNK         0.5031 
     51 O          29.0384  -47.9934  -56.2686 O.2       4 UNK        -0.5119 
     52 CA         31.3935  -48.3716  -56.3981 C.3       4 UNK         0.0263 
     53 CB         32.2868  -47.2228  -56.8955 C.3       4 UNK        -0.1967 
     54 N          32.1578  -49.2286  -55.4896 N.am      4 UNK        -0.4237 
     55 C          32.3631  -50.5417  -55.6722 C.2       3 UNK         0.4908 
     56 O          31.8797  -51.1794  -56.6084 O.2       3 UNK        -0.5102 
     57 CA         33.2810  -51.2841  -54.6804 C.3       3 UNK         0.0241 
     58 CB         34.4922  -51.8874  -55.4142 C.3       3 UNK        -0.1971 
     59 N          33.7740  -50.4290  -53.5990 N.am      3 UNK        -0.4139 
     60 C          33.1899  -50.2877  -52.4025 C.2       2 UNK         0.5016 
     61 O          32.1889  -50.9102  -52.0480 O.2       2 UNK        -0.5319 
     62 CA         33.8216  -49.2617  -51.4419 C.3       2 UNK         0.0286 
     63 CB         34.7756  -49.9605  -50.4597 C.3       2 UNK        -0.1963 
     64 N          34.5352  -48.1594  -52.1041 N.am      2 UNK        -0.4790 
     65 C          33.9703  -47.2655  -52.9302 C.2       1 UNK         0.5024 
     66 O          32.7979  -47.3545  -53.2980 O.2       1 UNK        -0.4888 
     67 H67        37.7855  -44.2567  -50.6237 H         1 UNK         0.0892 
     68 H68        37.7742  -45.9254  -50.0466 H         1 UNK         0.0892 
     69 H69        38.3850  -45.5526  -51.6598 H         1 UNK         0.0892 
     70 H70        36.9398  -46.0878  -53.2557 H         1 UNK         0.3107 
     71 H71        35.1555  -46.4538  -54.4697 H         1 UNK         0.0773 
     72 H72        33.0973  -45.0255  -54.2330 H         1 UNK         0.0680 
     73 H73        33.7008  -44.4214  -52.7137 H         1 UNK         0.0680 
     74 H74        34.2743  -41.1968  -54.7340 H         1 UNK         0.0650 
     75 H75        34.2021  -41.7869  -53.0917 H         1 UNK         0.0650 
     76 H76        32.1107  -42.4759  -52.1687 H         1 UNK         0.1397 
     77 H77        28.6450  -42.8923  -54.6608 H         1 UNK         0.1363 
     78 H78        32.4751  -42.0878  -56.4198 H         1 UNK         0.1355 
     79 H79        28.8392  -42.1722  -57.0362 H         1 UNK         0.0707 
     80 H80        30.4088  -41.8904  -57.7612 H         1 UNK         0.0707 
     81 H81        29.3977  -43.1444  -59.7761 H         1 UNK         0.1034 
     82 H82        29.3926  -44.8790  -59.9325 H         1 UNK         0.1034 
     83 H83        27.1994  -43.1349  -58.7296 H         1 UNK         0.0482 
     84 H84        26.0098  -45.8995  -60.4656 H         1 UNK         0.3460 
     85 H85        25.7477  -45.0594  -61.9757 H         1 UNK         0.3460 
     86 H86        27.6722  -45.8914  -58.1406 H         1 UNK         0.2989 
     87 H87        25.8041  -46.2738  -55.9633 H         1 UNK         0.0559 
     88 H88        23.5896  -47.0381  -57.9360 H         1 UNK         0.0848 
     89 H89        23.4096  -46.0513  -56.4938 H         1 UNK         0.0848 
     90 H90        23.8111  -47.7531  -56.3401 H         1 UNK         0.0848 
     91 H91        26.9686  -47.9967  -56.7234 H         1 UNK         0.3144 
     92 H92        26.7227  -50.2110  -59.3979 H         1 UNK         0.0727 
     93 H93        29.0621  -48.2808  -58.9154 H         1 UNK         0.0790 
     94 H94        28.3282  -48.6707  -60.4621 H         1 UNK         0.0790 
     95 H95        29.2115  -49.9065  -59.5802 H         1 UNK         0.0790 
     96 H96        28.2118  -49.5631  -56.8920 H         1 UNK         0.3215 
     97 H97        26.5332  -52.2299  -55.1350 H         1 UNK         0.0863 
     98 H98        28.8303  -52.2535  -54.2504 H         1 UNK         0.0808 
     99 H99        29.3718  -51.1282  -55.4910 H         1 UNK         0.0808 
    100 H100       28.8694  -52.7538  -55.9339 H         1 UNK         0.0808 
    101 H101       27.7697  -49.8847  -54.0927 H         1 UNK         0.3118 
    102 H102       24.8786  -47.8886  -53.6943 H         1 UNK         0.0546 
    103 H103       24.6737  -49.4612  -51.8040 H         1 UNK         0.0828 
    104 H104       25.4993  -47.9995  -51.2890 H         1 UNK         0.0828 
    105 H105       26.4131  -49.4799  -51.5740 H         1 UNK         0.0828 
    106 H106       26.6425  -46.6399  -53.9640 H         1 UNK         0.3005 
    107 H107       28.6591  -45.9772  -54.4597 H         1 UNK         0.1257 
    108 H108       30.6195  -45.3289  -52.8015 H         1 UNK         0.0775 
    109 H109       29.8665  -46.4249  -51.6845 H         1 UNK         0.0775 
    110 H110       28.7804  -42.1425  -51.8609 H         1 UNK         0.0840 
    111 H111       30.0826  -43.0597  -51.1485 H         1 UNK         0.0840 
    112 H112       31.1997  -47.1748  -54.1067 H         1 UNK         0.2987 
    113 H113       31.0696  -48.9365  -57.2748 H         1 UNK         0.0785 
    114 H114       32.6238  -46.5805  -56.0817 H         1 UNK         0.0798 
    115 H115       31.7498  -46.5942  -57.6062 H         1 UNK         0.0798 
    116 H116       33.1703  -47.6038  -57.4076 H         1 UNK         0.0798 
    117 H117       32.5244  -48.7846  -54.6551 H         1 UNK         0.3079 
    118 H118       32.6981  -52.1065  -54.2601 H         1 UNK         0.0794 
    119 H119       35.1035  -51.1177  -55.8871 H         1 UNK         0.0786 
    120 H120       34.1740  -52.5773  -56.1972 H         1 UNK         0.0786 
    121 H121       35.1291  -52.4503  -54.7315 H         1 UNK         0.0786 
    122 H122       34.6018  -49.8828  -53.7900 H         1 UNK         0.3032 
    123 H123       33.0024  -48.8215  -50.8684 H         1 UNK         0.1094 
    124 H124       35.1474  -49.2667  -49.7053 H         1 UNK         0.0794 
    125 H125       34.2682  -50.7686  -49.9305 H         1 UNK         0.0794 
    126 H126       35.6352  -50.3954  -50.9712 H         1 UNK         0.0794 
    127 H127       35.5038  -48.0260  -51.8516 H         1 UNK         0.3016 
@<TRIPOS>BOND
     1    1    2 1    
     2    1   67 1    
     3    1   68 1    
     4    1   69 1    
     5    2    3 2    
     6    2    4 am   BACKBONE|DICT|INTERRES
     7    4    5 1    
     8    4   70 1    
     9    5    6 1    
    10    5   65 1    
    11    5   71 1    
    12    6    7 1    
    13    6   72 1    
    14    6   73 1    
    15    7    8 1    
    16    8    9 1    
    17    8   74 1    
    18    8   75 1    
    19    9   10 ar   
    20    9   14 ar   
    21   10   11 ar   
    22   10   76 1    
    23   11   12 ar   
    24   11   48 1    
    25   12   13 ar   
    26   12   77 1    
    27   13   14 ar   
    28   13   15 1    
    29   14   78 1    
    30   15   16 1    
    31   15   79 1    
    32   15   80 1    
    33   16   17 1    
    34   17   18 1    
    35   17   81 1    
    36   17   82 1    
    37   18   19 1    
    38   18   22 1    
    39   18   83 1    
    40   19   20 am   BACKBONE|DICT|INTERRES
    41   19   21 2    
    42   20   84 1    
    43   20   85 1    
    44   22   23 am   BACKBONE|DICT|INTERRES
    45   22   86 1    
    46   23   24 2    
    47   23   25 1    
    48   25   26 1    
    49   25   27 1    
    50   25   87 1    
    51   26   88 1    
    52   26   89 1    
    53   26   90 1    
    54   27   28 am   BACKBONE|DICT|INTERRES
    55   27   91 1    
    56   28   29 2    
    57   28   30 1    
    58   30   31 1    
    59   30   32 1    
    60   30   92 1    
    61   31   93 1    
    62   31   94 1    
    63   31   95 1    
    64   32   33 am   BACKBONE|DICT|INTERRES
    65   32   96 1    
    66   33   34 2    
    67   33   35 1    
    68   35   36 1    
    69   35   37 1    
    70   35   97 1    
    71   36   98 1    
    72   36   99 1    
    73   36  100 1    
    74   37   38 am   BACKBONE|DICT|INTERRES
    75   37  101 1    
    76   38   39 2    
    77   38   40 1    
    78   40   41 1    
    79   40   42 1    
    80   40  102 1    
    81   41  103 1    
    82   41  104 1    
    83   41  105 1    
    84   42   43 am   BACKBONE|DICT|INTERRES
    85   42  106 1    
    86   43   44 2    
    87   43   45 1    
    88   45   46 1    
    89   45   49 1    
    90   45  107 1    
    91   46   47 1    
    92   46  108 1    
    93   46  109 1    
    94   47   48 1    
    95   48  110 1    
    96   48  111 1    
    97   49   50 am   BACKBONE|DICT|INTERRES
    98   49  112 1    
    99   50   51 2    
   100   50   52 1    
   101   52   53 1    
   102   52   54 1    
   103   52  113 1    
   104   53  114 1    
   105   53  115 1    
   106   53  116 1    
   107   54   55 am   BACKBONE|DICT|INTERRES
   108   54  117 1    
   109   55   56 2    
   110   55   57 1    
   111   57   58 1    
   112   57   59 1    
   113   57  118 1    
   114   58  119 1    
   115   58  120 1    
   116   58  121 1    
   117   59   60 am   BACKBONE|DICT|INTERRES
   118   59  122 1    
   119   60   61 2    
   120   60   62 1    
   121   62   63 1    
   122   62   64 1    
   123   62  123 1    
   124   63  124 1    
   125   63  125 1    
   126   63  126 1    
   127   64   65 am   BACKBONE|DICT|INTERRES
   128   64  127 1    
   129   65   66 2    
@<TRIPOS>SUBSTRUCTURE
     1 UNK         1 GROUP             0       ****    0 ROOT    
