@<TRIPOS>MOLECULE
3R134
127   129    1
SMALL
USER_CHARGES


@<TRIPOS>ATOM
      1 CA         33.4329  -46.8237  -57.6589 C.3       0 UNK        -0.1968 
      2 C          33.4980  -46.6119  -56.1549 C.2       0 UNK         0.4852 
      3 O          32.8425  -47.3449  -55.4111 O.2       0 UNK        -0.5359 
      4 N          34.2817  -45.6225  -55.7024 N.am      1 UNK        -0.4300 
      5 CA         34.4849  -45.2873  -54.2889 C.3       1 UNK         0.0863 
      6 C6         35.3568  -44.0216  -54.0925 C.3       11 UNK        -0.0953 
      7 S7         34.6846  -42.5367  -54.9100 S.3       11 UNK        -0.2369 
      8 C8         33.8310  -41.7064  -53.5320 C.3       11 UNK         0.0226 
      9 C9         32.5054  -42.3817  -53.2189 C.ar      11 UNK        -0.0699 
     10 C10        32.3993  -43.2936  -52.1643 C.ar      11 UNK        -0.0804 
     11 C11        31.1876  -43.9452  -51.9110 C.ar      11 UNK        -0.0871 
     12 C12        30.0702  -43.6514  -52.6985 C.ar      11 UNK        -0.1008 
     13 C13        30.1697  -42.7499  -53.7608 C.ar      11 UNK        -0.0735 
     14 C14        31.3862  -42.1103  -54.0097 C.ar      11 UNK        -0.0945 
     15 C15        28.9793  -42.4957  -54.6690 C.3       11 UNK         0.0169 
     16 S16        29.1463  -43.4553  -56.2036 S.3       11 UNK        -0.2669 
     17 C17        27.6209  -42.9862  -57.0898 C.3       11 UNK        -0.0850 
     18 CA         26.5917  -44.1506  -57.1803 C.3       10 UNK         0.0855 
     19 C          25.2376  -43.6907  -57.8023 C.2       10 UNK         0.5543 
     20 N          24.6029  -44.4548  -58.6837 N.am      10 UNK        -0.7343 
     21 O          24.7293  -42.6288  -57.4505 O.2       10 UNK        -0.5027 
     22 N          27.1527  -45.3856  -57.7550 N.am      10 UNK        -0.4495 
     23 C          27.6576  -45.5424  -58.9848 C.2       10 UNK         0.4903 
     24 O          27.7670  -44.6395  -59.8149 O.2       10 UNK        -0.4860 
     25 CA         28.0665  -46.9741  -59.3728 C.3       9 UNK         0.0227 
     26 CB         29.4148  -47.3490  -58.7367 C.3       9 UNK        -0.1964 
     27 N          27.0607  -47.9916  -59.0406 N.am      9 UNK        -0.4231 
     28 C          25.7743  -47.9852  -59.4181 C.2       9 UNK         0.5014 
     29 O          25.2544  -47.0713  -60.0596 O.2       9 UNK        -0.5270 
     30 CA         24.8985  -49.1873  -59.0195 C.3       8 UNK         0.0284 
     31 CB         24.9781  -50.3030  -60.0799 C.3       8 UNK        -0.1977 
     32 N          25.1302  -49.7119  -57.6668 N.am      8 UNK        -0.4342 
     33 C          26.2023  -50.3395  -57.1683 C.2       8 UNK         0.5039 
     34 O          27.2428  -50.5274  -57.8008 O.2       8 UNK        -0.5547 
     35 CA         26.0970  -50.7792  -55.6963 C.3       7 UNK         0.0281 
     36 CB         27.1065  -51.8865  -55.3440 C.3       7 UNK        -0.1963 
     37 N          26.2776  -49.6382  -54.7937 N.am      7 UNK        -0.4444 
     38 C          25.3699  -48.6669  -54.6056 C.2       7 UNK         0.5104 
     39 O          24.2527  -48.6824  -55.1264 O.2       7 UNK        -0.5100 
     40 CA         25.7385  -47.4776  -53.6969 C.3       6 UNK         0.0396 
     41 CB         24.9230  -47.5248  -52.3946 C.3       6 UNK        -0.1801 
     42 N          27.1601  -47.3808  -53.3603 N.am      6 UNK        -0.4747 
     43 C          28.1441  -47.0708  -54.2165 C.2       6 UNK         0.5012 
     44 O          27.9502  -46.8505  -55.4119 O.2       6 UNK        -0.5003 
     45 CA         29.5890  -47.0459  -53.6608 C.3       5 UNK         0.0782 
     46 C46        29.6545  -47.0551  -52.1045 C.3       11 UNK        -0.0868 
     47 S47        31.3149  -46.6715  -51.4578 S.3       11 UNK        -0.2515 
     48 C48        31.0953  -44.9833  -50.8034 C.3       11 UNK         0.0199 
     49 N          30.3897  -48.1121  -54.2769 N.am      5 UNK        -0.4607 
     50 C          30.0888  -49.4186  -54.2912 C.2       4 UNK         0.5031 
     51 O          29.1255  -49.9064  -53.6982 O.2       4 UNK        -0.5119 
     52 CA         30.9946  -50.3357  -55.1188 C.3       4 UNK         0.0263 
     53 CB         30.7744  -50.1171  -56.6256 C.3       4 UNK        -0.1967 
     54 N          32.4062  -50.1341  -54.7973 N.am      4 UNK        -0.4237 
     55 C          33.2937  -51.1247  -54.6384 C.2       3 UNK         0.4908 
     56 O          33.0112  -52.3216  -54.7146 O.2       3 UNK        -0.5102 
     57 CA         34.7532  -50.7266  -54.3653 C.3       3 UNK         0.0241 
     58 CB         35.5042  -50.5092  -55.6893 C.3       3 UNK        -0.1971 
     59 N          34.8874  -49.5284  -53.5392 N.am      3 UNK        -0.4139 
     60 C          34.5636  -49.4251  -52.2450 C.2       2 UNK         0.5016 
     61 O          34.1190  -50.3591  -51.5771 O.2       2 UNK        -0.5319 
     62 CA         34.7611  -48.0514  -51.5733 C.3       2 UNK         0.0286 
     63 CB         36.1603  -47.9383  -50.9371 C.3       2 UNK        -0.1963 
     64 N          34.4626  -46.8965  -52.4372 N.am      2 UNK        -0.4790 
     65 C          35.1096  -46.4735  -53.5319 C.2       1 UNK         0.5024 
     66 O          36.1342  -46.9984  -53.9735 O.2       1 UNK        -0.4888 
     67 H67        32.4273  -46.6137  -58.0199 H         1 UNK         0.0892 
     68 H68        34.1292  -46.1774  -58.1927 H         1 UNK         0.0892 
     69 H69        33.6739  -47.8581  -57.9021 H         1 UNK         0.0892 
     70 H70        34.8003  -45.0565  -56.3581 H         1 UNK         0.3107 
     71 H71        33.4947  -45.0978  -53.8728 H         1 UNK         0.0773 
     72 H72        35.4907  -43.8098  -53.0301 H         1 UNK         0.0680 
     73 H73        36.3597  -44.1874  -54.4911 H         1 UNK         0.0680 
     74 H74        33.6512  -40.6664  -53.8081 H         1 UNK         0.0650 
     75 H75        34.4755  -41.6792  -52.6521 H         1 UNK         0.0650 
     76 H76        33.2673  -43.5156  -51.5585 H         1 UNK         0.1397 
     77 H77        29.1291  -44.1470  -52.5069 H         1 UNK         0.1363 
     78 H78        31.4697  -41.4223  -54.8402 H         1 UNK         0.1355 
     79 H79        28.9139  -41.4323  -54.9047 H         1 UNK         0.0707 
     80 H80        28.0475  -42.7664  -54.1696 H         1 UNK         0.0707 
     81 H81        27.1762  -42.1213  -56.5944 H         1 UNK         0.1034 
     82 H82        27.8964  -42.6411  -58.0873 H         1 UNK         0.1034 
     83 H83        26.3352  -44.4230  -56.1558 H         1 UNK         0.0482 
     84 H84        25.0077  -45.3224  -59.0160 H         1 UNK         0.3460 
     85 H85        23.7233  -44.1396  -59.0600 H         1 UNK         0.3460 
     86 H86        27.1946  -46.1712  -57.1136 H         1 UNK         0.2989 
     87 H87        28.1900  -46.9947  -60.4574 H         1 UNK         0.0559 
     88 H88        30.1782  -46.6118  -58.9872 H         1 UNK         0.0848 
     89 H89        29.3515  -47.3955  -57.6490 H         1 UNK         0.0848 
     90 H90        29.7680  -48.3163  -59.0942 H         1 UNK         0.0848 
     91 H91        27.3784  -48.8178  -58.5370 H         1 UNK         0.3144 
     92 H92        23.8694  -48.8242  -59.0109 H         1 UNK         0.0727 
     93 H93        24.2959  -51.1207  -59.8473 H         1 UNK         0.0790 
     94 H94        25.9832  -50.7177  -60.1628 H         1 UNK         0.0790 
     95 H95        24.7039  -49.9227  -61.0648 H         1 UNK         0.0790 
     96 H96        24.3982  -49.4974  -56.9953 H         1 UNK         0.3215 
     97 H97        25.0971  -51.1905  -55.5400 H         1 UNK         0.0863 
     98 H98        26.9357  -52.7737  -55.9549 H         1 UNK         0.0808 
     99 H99        28.1350  -51.5717  -55.5169 H         1 UNK         0.0808 
    100 H100       27.0198  -52.1881  -54.3001 H         1 UNK         0.0808 
    101 H101       27.1845  -49.5548  -54.3451 H         1 UNK         0.3118 
    102 H102       25.4629  -46.5688  -54.2362 H         1 UNK         0.0546 
    103 H103       23.8525  -47.5533  -52.6036 H         1 UNK         0.0828 
    104 H104       25.1050  -46.6441  -51.7785 H         1 UNK         0.0828 
    105 H105       25.1614  -48.4078  -51.8005 H         1 UNK         0.0828 
    106 H106       27.4083  -47.6071  -52.4081 H         1 UNK         0.3005 
    107 H107       30.0181  -46.1078  -54.0162 H         1 UNK         0.1257 
    108 H108       29.3666  -48.0315  -51.7112 H         1 UNK         0.0775 
    109 H109       28.9502  -46.3408  -51.6763 H         1 UNK         0.0775 
    110 H110       30.1443  -44.8983  -50.2755 H         1 UNK         0.0840 
    111 H111       31.8676  -44.7986  -50.0550 H         1 UNK         0.0840 
    112 H112       31.2117  -47.7944  -54.7876 H         1 UNK         0.2987 
    113 H113       30.6985  -51.3592  -54.8783 H         1 UNK         0.0785 
    114 H114       29.7172  -50.1816  -56.8834 H         1 UNK         0.0798 
    115 H115       31.2981  -50.8709  -57.2134 H         1 UNK         0.0798 
    116 H116       31.1307  -49.1380  -56.9469 H         1 UNK         0.0798 
    117 H117       32.7228  -49.1694  -54.7453 H         1 UNK         0.3079 
    118 H118       35.2276  -51.5537  -53.8329 H         1 UNK         0.0794 
    119 H119       35.4423  -51.3945  -56.3238 H         1 UNK         0.0786 
    120 H120       36.5618  -50.3080  -55.5172 H         1 UNK         0.0786 
    121 H121       35.0913  -49.6723  -56.2544 H         1 UNK         0.0786 
    122 H122       35.2910  -48.7054  -53.9765 H         1 UNK         0.3032 
    123 H123       34.0325  -48.0060  -50.7617 H         1 UNK         0.1094 
    124 H124       36.2812  -46.9915  -50.4107 H         1 UNK         0.0794 
    125 H125       36.3198  -48.7356  -50.2099 H         1 UNK         0.0794 
    126 H126       36.9568  -48.0156  -51.6776 H         1 UNK         0.0794 
    127 H127       33.5897  -46.4356  -52.2096 H         1 UNK         0.3016 
@<TRIPOS>BOND
     1    1    2 1    
     2    1   67 1    
     3    1   68 1    
     4    1   69 1    
     5    2    3 2    
     6    2    4 am   BACKBONE|DICT|INTERRES
     7    4    5 1    
     8    4   70 1    
     9    5    6 1    
    10    5   65 1    
    11    5   71 1    
    12    6    7 1    
    13    6   72 1    
    14    6   73 1    
    15    7    8 1    
    16    8    9 1    
    17    8   74 1    
    18    8   75 1    
    19    9   10 ar   
    20    9   14 ar   
    21   10   11 ar   
    22   10   76 1    
    23   11   12 ar   
    24   11   48 1    
    25   12   13 ar   
    26   12   77 1    
    27   13   14 ar   
    28   13   15 1    
    29   14   78 1    
    30   15   16 1    
    31   15   79 1    
    32   15   80 1    
    33   16   17 1    
    34   17   18 1    
    35   17   81 1    
    36   17   82 1    
    37   18   19 1    
    38   18   22 1    
    39   18   83 1    
    40   19   20 am   BACKBONE|DICT|INTERRES
    41   19   21 2    
    42   20   84 1    
    43   20   85 1    
    44   22   23 am   BACKBONE|DICT|INTERRES
    45   22   86 1    
    46   23   24 2    
    47   23   25 1    
    48   25   26 1    
    49   25   27 1    
    50   25   87 1    
    51   26   88 1    
    52   26   89 1    
    53   26   90 1    
    54   27   28 am   BACKBONE|DICT|INTERRES
    55   27   91 1    
    56   28   29 2    
    57   28   30 1    
    58   30   31 1    
    59   30   32 1    
    60   30   92 1    
    61   31   93 1    
    62   31   94 1    
    63   31   95 1    
    64   32   33 am   BACKBONE|DICT|INTERRES
    65   32   96 1    
    66   33   34 2    
    67   33   35 1    
    68   35   36 1    
    69   35   37 1    
    70   35   97 1    
    71   36   98 1    
    72   36   99 1    
    73   36  100 1    
    74   37   38 am   BACKBONE|DICT|INTERRES
    75   37  101 1    
    76   38   39 2    
    77   38   40 1    
    78   40   41 1    
    79   40   42 1    
    80   40  102 1    
    81   41  103 1    
    82   41  104 1    
    83   41  105 1    
    84   42   43 am   BACKBONE|DICT|INTERRES
    85   42  106 1    
    86   43   44 2    
    87   43   45 1    
    88   45   46 1    
    89   45   49 1    
    90   45  107 1    
    91   46   47 1    
    92   46  108 1    
    93   46  109 1    
    94   47   48 1    
    95   48  110 1    
    96   48  111 1    
    97   49   50 am   BACKBONE|DICT|INTERRES
    98   49  112 1    
    99   50   51 2    
   100   50   52 1    
   101   52   53 1    
   102   52   54 1    
   103   52  113 1    
   104   53  114 1    
   105   53  115 1    
   106   53  116 1    
   107   54   55 am   BACKBONE|DICT|INTERRES
   108   54  117 1    
   109   55   56 2    
   110   55   57 1    
   111   57   58 1    
   112   57   59 1    
   113   57  118 1    
   114   58  119 1    
   115   58  120 1    
   116   58  121 1    
   117   59   60 am   BACKBONE|DICT|INTERRES
   118   59  122 1    
   119   60   61 2    
   120   60   62 1    
   121   62   63 1    
   122   62   64 1    
   123   62  123 1    
   124   63  124 1    
   125   63  125 1    
   126   63  126 1    
   127   64   65 am   BACKBONE|DICT|INTERRES
   128   64  127 1    
   129   65   66 2    
@<TRIPOS>SUBSTRUCTURE
     1 UNK         1 GROUP             0       ****    0 ROOT    
