@<TRIPOS>MOLECULE
3R134
127   129    1
SMALL
USER_CHARGES


@<TRIPOS>ATOM
      1 CA         32.5742  -46.3644  -50.2234 C.3       0 UNK        -0.1968 
      2 C          33.8106  -45.8480  -50.9429 C.2       0 UNK         0.4852 
      3 O          34.4223  -44.8773  -50.4933 O.2       0 UNK        -0.5359 
      4 N          34.1784  -46.4976  -52.0498 N.am      1 UNK        -0.4300 
      5 CA         35.3642  -46.2144  -52.8556 C.3       1 UNK         0.0863 
      6 C6         35.0202  -45.4191  -54.1469 C.3       11 UNK        -0.0953 
      7 S7         33.7650  -46.2012  -55.2259 S.3       11 UNK        -0.2369 
      8 C8         33.2287  -44.7723  -56.2228 C.3       11 UNK         0.0226 
      9 C9         31.9247  -44.1262  -55.7562 C.ar      11 UNK        -0.0699 
     10 C10        31.6242  -43.9489  -54.4003 C.ar      11 UNK        -0.0804 
     11 C11        30.4406  -43.3138  -54.0118 C.ar      11 UNK        -0.0871 
     12 C12        29.5610  -42.8368  -54.9878 C.ar      11 UNK        -0.1008 
     13 C13        29.8378  -43.0125  -56.3497 C.ar      11 UNK        -0.0735 
     14 C14        31.0217  -43.6590  -56.7165 C.ar      11 UNK        -0.0945 
     15 C15        28.9199  -42.5072  -57.4685 C.3       11 UNK         0.0169 
     16 S16        27.2620  -41.9192  -56.9756 S.3       11 UNK        -0.2669 
     17 C17        26.4834  -43.4310  -56.3001 C.3       11 UNK        -0.0850 
     18 CA         25.5235  -44.2008  -57.2496 C.3       10 UNK         0.0855 
     19 C          24.4097  -43.3002  -57.8607 C.2       10 UNK         0.5543 
     20 N          23.4093  -42.9372  -57.0685 N.am      10 UNK        -0.7343 
     21 O          24.4535  -42.9062  -59.0253 O.2       10 UNK        -0.5027 
     22 N          26.2666  -45.0089  -58.2274 N.am      10 UNK        -0.4495 
     23 C          25.7332  -45.9297  -59.0391 C.2       10 UNK         0.4903 
     24 O          24.5380  -46.2269  -59.0542 O.2       10 UNK        -0.4860 
     25 CA         26.6926  -46.6694  -59.9879 C.3       9 UNK         0.0227 
     26 CB         27.2932  -45.7232  -61.0480 C.3       9 UNK        -0.1964 
     27 N          27.7253  -47.4470  -59.2911 N.am      9 UNK        -0.4231 
     28 C          28.7538  -47.0127  -58.5512 C.2       9 UNK         0.5014 
     29 O          29.0090  -45.8215  -58.3755 O.2       9 UNK        -0.5270 
     30 CA         29.6482  -48.0957  -57.9108 C.3       8 UNK         0.0284 
     31 CB         30.7815  -47.4915  -57.0612 C.3       8 UNK        -0.1977 
     32 N          28.8973  -49.0417  -57.0811 N.am      8 UNK        -0.4342 
     33 C          28.0888  -50.0155  -57.5204 C.2       8 UNK         0.5039 
     34 O          27.8626  -50.2271  -58.7130 O.2       8 UNK        -0.5547 
     35 CA         27.3942  -50.8736  -56.4541 C.3       7 UNK         0.0281 
     36 CB         28.3577  -51.9309  -55.8881 C.3       7 UNK        -0.1963 
     37 N          26.8799  -50.0387  -55.3678 N.am      7 UNK        -0.4444 
     38 C          25.6660  -49.4701  -55.3587 C.2       7 UNK         0.5104 
     39 O          24.8182  -49.6538  -56.2325 O.2       7 UNK        -0.5100 
     40 CA         25.3259  -48.5462  -54.1721 C.3       6 UNK         0.0396 
     41 CB         24.5563  -49.3244  -53.0930 C.3       6 UNK        -0.1801 
     42 N          26.4991  -47.9133  -53.5630 N.am      6 UNK        -0.4747 
     43 C          27.2544  -46.9780  -54.1590 C.2       6 UNK         0.5012 
     44 O          27.0040  -46.5146  -55.2682 O.2       6 UNK        -0.5003 
     45 CA         28.5289  -46.5269  -53.4131 C.3       5 UNK         0.0782 
     46 C46        28.2459  -45.2695  -52.5540 C.3       11 UNK        -0.0868 
     47 S47        29.7397  -44.6784  -51.6855 S.3       11 UNK        -0.2515 
     48 C48        30.1212  -43.1143  -52.5367 C.3       11 UNK         0.0199 
     49 N          29.1407  -47.6112  -52.6277 N.am      5 UNK        -0.4607 
     50 C          29.5916  -48.7614  -53.1405 C.2       4 UNK         0.5031 
     51 O          29.4586  -49.0777  -54.3242 O.2       4 UNK        -0.5119 
     52 CA         30.2463  -49.7541  -52.1672 C.3       4 UNK         0.0263 
     53 CB         29.1990  -50.7520  -51.6474 C.3       4 UNK        -0.1967 
     54 N          31.3272  -50.4903  -52.8270 N.am      4 UNK        -0.4237 
     55 C          32.4610  -49.9201  -53.2520 C.2       3 UNK         0.4908 
     56 O          32.7753  -48.7546  -52.9887 O.2       3 UNK        -0.5102 
     57 CA         33.3858  -50.7860  -54.1217 C.3       3 UNK         0.0241 
     58 CB         32.6840  -51.2595  -55.4091 C.3       3 UNK        -0.1971 
     59 N          34.5435  -49.9751  -54.4759 N.am      3 UNK        -0.4139 
     60 C          35.8201  -50.3678  -54.5250 C.2       2 UNK         0.5016 
     61 O          36.1863  -51.5387  -54.4162 O.2       2 UNK        -0.5319 
     62 CA         36.8719  -49.2540  -54.7101 C.3       2 UNK         0.0286 
     63 CB         37.3523  -49.2034  -56.1695 C.3       2 UNK        -0.1963 
     64 N          36.3705  -47.9280  -54.3248 N.am      2 UNK        -0.4790 
     65 C          36.1089  -47.5481  -53.0656 C.2       1 UNK         0.5024 
     66 O          36.4120  -48.2284  -52.0830 O.2       1 UNK        -0.4888 
     67 H67        32.8639  -47.0014  -49.3884 H         1 UNK         0.0892 
     68 H68        31.9889  -45.5332  -49.8315 H         1 UNK         0.0892 
     69 H69        31.9357  -46.9415  -50.8922 H         1 UNK         0.0892 
     70 H70        33.6403  -47.3079  -52.3600 H         1 UNK         0.3107 
     71 H71        36.0570  -45.6010  -52.2759 H         1 UNK         0.0773 
     72 H72        34.6539  -44.4334  -53.8569 H         1 UNK         0.0680 
     73 H73        35.9205  -45.2266  -54.7330 H         1 UNK         0.0680 
     74 H74        33.1225  -45.1191  -57.2515 H         1 UNK         0.0650 
     75 H75        34.0135  -44.0152  -56.2413 H         1 UNK         0.0650 
     76 H76        32.3069  -44.3033  -53.6411 H         1 UNK         0.1397 
     77 H77        28.6615  -42.3266  -54.6756 H         1 UNK         0.1363 
     78 H78        31.2440  -43.7927  -57.7667 H         1 UNK         0.1355 
     79 H79        28.7941  -43.2843  -58.2213 H         1 UNK         0.0707 
     80 H80        29.4268  -41.6825  -57.9710 H         1 UNK         0.0707 
     81 H81        27.2637  -44.1031  -55.9455 H         1 UNK         0.1034 
     82 H82        25.9374  -43.1364  -55.4026 H         1 UNK         0.1034 
     83 H83        25.0047  -44.9347  -56.6292 H         1 UNK         0.0482 
     84 H84        23.3622  -43.2456  -56.1101 H         1 UNK         0.3460 
     85 H85        22.6830  -42.3444  -57.4390 H         1 UNK         0.3460 
     86 H86        27.2752  -44.8970  -58.2460 H         1 UNK         0.2989 
     87 H87        26.0938  -47.4075  -60.5240 H         1 UNK         0.0559 
     88 H88        27.9148  -44.9446  -60.6054 H         1 UNK         0.0848 
     89 H89        26.5038  -45.2220  -61.6096 H         1 UNK         0.0848 
     90 H90        27.9042  -46.2703  -61.7657 H         1 UNK         0.0848 
     91 H91        27.6055  -48.4583  -59.3195 H         1 UNK         0.3144 
     92 H92        30.1091  -48.6532  -58.7286 H         1 UNK         0.0727 
     93 H93        31.4216  -48.2627  -56.6340 H         1 UNK         0.0790 
     94 H94        30.3926  -46.8899  -56.2390 H         1 UNK         0.0790 
     95 H95        31.4164  -46.8432  -57.6653 H         1 UNK         0.0790 
     96 H96        29.0388  -48.9586  -56.0754 H         1 UNK         0.3215 
     97 H97        26.5652  -51.3996  -56.9332 H         1 UNK         0.0863 
     98 H98        27.8618  -52.5643  -55.1526 H         1 UNK         0.0808 
     99 H99        29.2276  -51.4808  -55.4093 H         1 UNK         0.0808 
    100 H100       28.7262  -52.5830  -56.6810 H         1 UNK         0.0808 
    101 H101       27.5436  -49.7762  -54.6494 H         1 UNK         0.3118 
    102 H102       24.6748  -47.7548  -54.5498 H         1 UNK         0.0546 
    103 H103       23.6592  -49.7846  -53.5097 H         1 UNK         0.0828 
    104 H104       24.2347  -48.6694  -52.2832 H         1 UNK         0.0828 
    105 H105       25.1607  -50.1232  -52.6612 H         1 UNK         0.0828 
    106 H106       26.7754  -48.2408  -52.6486 H         1 UNK         0.3005 
    107 H107       29.2522  -46.2455  -54.1825 H         1 UNK         0.1257 
    108 H108       27.4842  -45.4832  -51.8018 H         1 UNK         0.0775 
    109 H109       27.8432  -44.4642  -53.1712 H         1 UNK         0.0775 
    110 H110       29.2859  -42.4245  -52.4057 H         1 UNK         0.0840 
    111 H111       30.9777  -42.6491  -52.0468 H         1 UNK         0.0840 
    112 H112       29.2785  -47.4171  -51.6465 H         1 UNK         0.2987 
    113 H113       30.6666  -49.2046  -51.3222 H         1 UNK         0.0785 
    114 H114       28.3927  -50.2373  -51.1232 H         1 UNK         0.0798 
    115 H115       29.6397  -51.4585  -50.9438 H         1 UNK         0.0798 
    116 H116       28.7470  -51.3245  -52.4589 H         1 UNK         0.0798 
    117 H117       31.1281  -51.4422  -53.0962 H         1 UNK         0.3079 
    118 H118       33.7006  -51.6477  -53.5294 H         1 UNK         0.0794 
    119 H119       32.2853  -50.4217  -55.9819 H         1 UNK         0.0786 
    120 H120       31.8525  -51.9292  -55.1881 H         1 UNK         0.0786 
    121 H121       33.3716  -51.8065  -56.0545 H         1 UNK         0.0786 
    122 H122       34.3504  -48.9818  -54.5037 H         1 UNK         0.3032 
    123 H123       37.7240  -49.5011  -54.0725 H         1 UNK         0.1094 
    124 H124       36.5404  -48.9538  -56.8540 H         1 UNK         0.0794 
    125 H125       38.1436  -48.4654  -56.3018 H         1 UNK         0.0794 
    126 H126       37.7559  -50.1681  -56.4806 H         1 UNK         0.0794 
    127 H127       36.0733  -47.3175  -55.0745 H         1 UNK         0.3016 
@<TRIPOS>BOND
     1    1    2 1    
     2    1   67 1    
     3    1   68 1    
     4    1   69 1    
     5    2    3 2    
     6    2    4 am   BACKBONE|DICT|INTERRES
     7    4    5 1    
     8    4   70 1    
     9    5    6 1    
    10    5   65 1    
    11    5   71 1    
    12    6    7 1    
    13    6   72 1    
    14    6   73 1    
    15    7    8 1    
    16    8    9 1    
    17    8   74 1    
    18    8   75 1    
    19    9   10 ar   
    20    9   14 ar   
    21   10   11 ar   
    22   10   76 1    
    23   11   12 ar   
    24   11   48 1    
    25   12   13 ar   
    26   12   77 1    
    27   13   14 ar   
    28   13   15 1    
    29   14   78 1    
    30   15   16 1    
    31   15   79 1    
    32   15   80 1    
    33   16   17 1    
    34   17   18 1    
    35   17   81 1    
    36   17   82 1    
    37   18   19 1    
    38   18   22 1    
    39   18   83 1    
    40   19   20 am   BACKBONE|DICT|INTERRES
    41   19   21 2    
    42   20   84 1    
    43   20   85 1    
    44   22   23 am   BACKBONE|DICT|INTERRES
    45   22   86 1    
    46   23   24 2    
    47   23   25 1    
    48   25   26 1    
    49   25   27 1    
    50   25   87 1    
    51   26   88 1    
    52   26   89 1    
    53   26   90 1    
    54   27   28 am   BACKBONE|DICT|INTERRES
    55   27   91 1    
    56   28   29 2    
    57   28   30 1    
    58   30   31 1    
    59   30   32 1    
    60   30   92 1    
    61   31   93 1    
    62   31   94 1    
    63   31   95 1    
    64   32   33 am   BACKBONE|DICT|INTERRES
    65   32   96 1    
    66   33   34 2    
    67   33   35 1    
    68   35   36 1    
    69   35   37 1    
    70   35   97 1    
    71   36   98 1    
    72   36   99 1    
    73   36  100 1    
    74   37   38 am   BACKBONE|DICT|INTERRES
    75   37  101 1    
    76   38   39 2    
    77   38   40 1    
    78   40   41 1    
    79   40   42 1    
    80   40  102 1    
    81   41  103 1    
    82   41  104 1    
    83   41  105 1    
    84   42   43 am   BACKBONE|DICT|INTERRES
    85   42  106 1    
    86   43   44 2    
    87   43   45 1    
    88   45   46 1    
    89   45   49 1    
    90   45  107 1    
    91   46   47 1    
    92   46  108 1    
    93   46  109 1    
    94   47   48 1    
    95   48  110 1    
    96   48  111 1    
    97   49   50 am   BACKBONE|DICT|INTERRES
    98   49  112 1    
    99   50   51 2    
   100   50   52 1    
   101   52   53 1    
   102   52   54 1    
   103   52  113 1    
   104   53  114 1    
   105   53  115 1    
   106   53  116 1    
   107   54   55 am   BACKBONE|DICT|INTERRES
   108   54  117 1    
   109   55   56 2    
   110   55   57 1    
   111   57   58 1    
   112   57   59 1    
   113   57  118 1    
   114   58  119 1    
   115   58  120 1    
   116   58  121 1    
   117   59   60 am   BACKBONE|DICT|INTERRES
   118   59  122 1    
   119   60   61 2    
   120   60   62 1    
   121   62   63 1    
   122   62   64 1    
   123   62  123 1    
   124   63  124 1    
   125   63  125 1    
   126   63  126 1    
   127   64   65 am   BACKBONE|DICT|INTERRES
   128   64  127 1    
   129   65   66 2    
@<TRIPOS>SUBSTRUCTURE
     1 UNK         1 GROUP             0       ****    0 ROOT    
