@<TRIPOS>MOLECULE
3R134
127   129    1
SMALL
USER_CHARGES


@<TRIPOS>ATOM
      1 CA         31.0839  -45.7878  -49.9601 C.3       0 UNK        -0.1968 
      2 C          32.4108  -45.0547  -50.0770 C.2       0 UNK         0.4852 
      3 O          33.3090  -45.2923  -49.2680 O.2       0 UNK        -0.5359 
      4 N          32.5363  -44.1528  -51.0603 N.am      1 UNK        -0.4300 
      5 CA         33.7124  -43.2919  -51.2477 C.3       1 UNK         0.0863 
      6 C6         33.4106  -41.9947  -52.0511 C.3       11 UNK        -0.0953 
      7 S7         31.7925  -41.2313  -51.6626 S.3       11 UNK        -0.2369 
      8 C8         30.9305  -41.2592  -53.2736 C.3       11 UNK         0.0226 
      9 C9         30.9596  -42.6294  -53.9401 C.ar      11 UNK        -0.0699 
     10 C10        30.1943  -43.6840  -53.4344 C.ar      11 UNK        -0.0804 
     11 C11        30.2616  -44.9506  -54.0237 C.ar      11 UNK        -0.0871 
     12 C12        31.0864  -45.1528  -55.1358 C.ar      11 UNK        -0.1008 
     13 C13        31.8472  -44.1032  -55.6553 C.ar      11 UNK        -0.0735 
     14 C14        31.7708  -42.8428  -55.0592 C.ar      11 UNK        -0.0945 
     15 C15        32.7869  -44.3283  -56.8301 C.3       11 UNK         0.0169 
     16 S16        32.0008  -43.9501  -58.4252 S.3       11 UNK        -0.2669 
     17 C17        31.2462  -45.5548  -58.8588 C.3       11 UNK        -0.0850 
     18 CA         29.7165  -45.4598  -59.0843 C.3       10 UNK         0.0855 
     19 C          29.1761  -46.7974  -59.6713 C.2       10 UNK         0.5543 
     20 N          28.3626  -47.5659  -58.9605 N.am      10 UNK        -0.7343 
     21 O          29.5063  -47.1419  -60.8034 O.2       10 UNK        -0.5027 
     22 N          29.0192  -44.9882  -57.8785 N.am      10 UNK        -0.4495 
     23 C          27.7720  -44.5076  -57.8557 C.2       10 UNK         0.4903 
     24 O          27.0872  -44.2958  -58.8585 O.2       10 UNK        -0.4860 
     25 CA         27.1761  -44.2501  -56.4603 C.3       9 UNK         0.0227 
     26 CB         26.6793  -42.8016  -56.3226 C.3       9 UNK        -0.1964 
     27 N          26.0823  -45.1796  -56.1551 N.am      9 UNK        -0.4231 
     28 C          26.1934  -46.5160  -56.1388 C.2       9 UNK         0.5014 
     29 O          27.2538  -47.1040  -56.3571 O.2       9 UNK        -0.5270 
     30 CA         24.9420  -47.3347  -55.7643 C.3       8 UNK         0.0284 
     31 CB         23.6080  -46.6683  -56.1723 C.3       8 UNK        -0.1977 
     32 N          25.0366  -48.7175  -56.2534 N.am      8 UNK        -0.4342 
     33 C          25.0058  -49.1418  -57.5278 C.2       8 UNK         0.5039 
     34 O          24.7593  -48.4080  -58.4864 O.2       8 UNK        -0.5547 
     35 CA         25.2960  -50.6358  -57.7869 C.3       7 UNK         0.0281 
     36 CB         26.0876  -50.8484  -59.0910 C.3       7 UNK        -0.1963 
     37 N          26.0443  -51.2470  -56.6866 N.am      7 UNK        -0.4444 
     38 C          25.5256  -52.0369  -55.7347 C.2       7 UNK         0.5104 
     39 O          24.3493  -52.3989  -55.7122 O.2       7 UNK        -0.5100 
     40 CA         26.4656  -52.4741  -54.5902 C.3       6 UNK         0.0396 
     41 CB         27.0069  -53.8882  -54.8525 C.3       6 UNK        -0.1801 
     42 N          27.5919  -51.5586  -54.3791 N.am      6 UNK        -0.4747 
     43 C          27.4750  -50.2692  -54.0291 C.2       6 UNK         0.5012 
     44 O          26.4053  -49.7571  -53.6963 O.2       6 UNK        -0.5003 
     45 CA         28.7256  -49.3764  -54.1501 C.3       5 UNK         0.0782 
     46 C46        29.1586  -48.7907  -52.7852 C.3       11 UNK        -0.0868 
     47 S47        30.4493  -47.5189  -52.9866 S.3       11 UNK        -0.2515 
     48 C48        29.4231  -46.0963  -53.4817 C.3       11 UNK         0.0199 
     49 N          29.8466  -49.9737  -54.8868 N.am      5 UNK        -0.4607 
     50 C          29.8480  -50.2628  -56.1957 C.2       4 UNK         0.5031 
     51 O          28.8350  -50.2237  -56.8952 O.2       4 UNK        -0.5119 
     52 CA         31.1840  -50.7192  -56.8139 C.3       4 UNK         0.0263 
     53 CB         31.3586  -50.2153  -58.2634 C.3       4 UNK        -0.1967 
     54 N          32.3590  -50.4179  -55.9776 N.am      4 UNK        -0.4237 
     55 C          32.9257  -49.2227  -55.7461 C.2       3 UNK         0.4908 
     56 O          32.5676  -48.1636  -56.2656 O.2       3 UNK        -0.5102 
     57 CA         34.1014  -49.2273  -54.7581 C.3       3 UNK         0.0241 
     58 CB         35.2899  -50.0509  -55.2930 C.3       3 UNK        -0.1971 
     59 N          34.5448  -47.8584  -54.5006 N.am      3 UNK        -0.4139 
     60 C          35.0733  -47.4156  -53.3538 C.2       2 UNK         0.5016 
     61 O          35.1891  -48.1079  -52.3415 O.2       2 UNK        -0.5319 
     62 CA         35.5768  -45.9657  -53.3187 C.3       2 UNK         0.0286 
     63 CB         35.8957  -45.3657  -54.7040 C.3       2 UNK        -0.1963 
     64 N          34.6007  -45.1342  -52.6217 N.am      2 UNK        -0.4790 
     65 C          34.8941  -44.0521  -51.8871 C.2       1 UNK         0.5024 
     66 O          36.0408  -43.6353  -51.7152 O.2       1 UNK        -0.4888 
     67 H67        30.3508  -45.4186  -50.6757 H         1 UNK         0.0892 
     68 H68        30.6710  -45.6581  -48.9602 H         1 UNK         0.0892 
     69 H69        31.2275  -46.8539  -50.1325 H         1 UNK         0.0892 
     70 H70        31.7725  -43.9853  -51.7005 H         1 UNK         0.3107 
     71 H71        34.0424  -42.9788  -50.2545 H         1 UNK         0.0773 
     72 H72        33.4828  -42.1715  -53.1235 H         1 UNK         0.0680 
     73 H73        34.1818  -41.2522  -51.8391 H         1 UNK         0.0680 
     74 H74        31.3811  -40.5073  -53.9233 H         1 UNK         0.0650 
     75 H75        29.8946  -40.9512  -53.1253 H         1 UNK         0.0650 
     76 H76        29.5540  -43.5149  -52.5790 H         1 UNK         0.1397 
     77 H77        31.1439  -46.1344  -55.5863 H         1 UNK         0.1363 
     78 H78        32.3650  -42.0305  -55.4553 H         1 UNK         0.1355 
     79 H79        33.6631  -43.6873  -56.7211 H         1 UNK         0.0707 
     80 H80        33.1636  -45.3521  -56.8311 H         1 UNK         0.0707 
     81 H81        31.7440  -45.9058  -59.7650 H         1 UNK         0.1034 
     82 H82        31.4670  -46.3012  -58.0933 H         1 UNK         0.1034 
     83 H83        29.5498  -44.7101  -59.8602 H         1 UNK         0.0482 
     84 H84        28.0731  -47.3069  -58.0203 H         1 UNK         0.3460 
     85 H85        28.0311  -48.4279  -59.3577 H         1 UNK         0.3460 
     86 H86        29.5050  -45.1274  -57.0049 H         1 UNK         0.2989 
     87 H87        27.9554  -44.4038  -55.7119 H         1 UNK         0.0559 
     88 H88        25.8638  -42.5850  -57.0139 H         1 UNK         0.0848 
     89 H89        27.4828  -42.0950  -56.5351 H         1 UNK         0.0848 
     90 H90        26.3285  -42.5951  -55.3113 H         1 UNK         0.0848 
     91 H91        25.1752  -44.7712  -55.9853 H         1 UNK         0.3144 
     92 H92        24.9509  -47.4108  -54.6760 H         1 UNK         0.0727 
     93 H93        23.4279  -45.7564  -55.6024 H         1 UNK         0.0790 
     94 H94        22.7631  -47.3303  -55.9819 H         1 UNK         0.0790 
     95 H95        23.5898  -46.4038  -57.2303 H         1 UNK         0.0790 
     96 H96        25.2984  -49.3922  -55.5448 H         1 UNK         0.3215 
     97 H97        24.3273  -51.1267  -57.9009 H         1 UNK         0.0863 
     98 H98        27.0569  -50.3505  -59.0568 H         1 UNK         0.0808 
     99 H99        25.5460  -50.4557  -59.9525 H         1 UNK         0.0808 
    100 H100       26.2632  -51.9078  -59.2782 H         1 UNK         0.0808 
    101 H101       27.0245  -50.9799  -56.6258 H         1 UNK         0.3118 
    102 H102       25.8767  -52.4967  -53.6710 H         1 UNK         0.0546 
    103 H103       27.6203  -53.9256  -55.7537 H         1 UNK         0.0828 
    104 H104       26.1904  -54.5995  -54.9852 H         1 UNK         0.0828 
    105 H105       27.6110  -54.2444  -54.0180 H         1 UNK         0.0828 
    106 H106       28.5073  -51.8920  -54.6452 H         1 UNK         0.3005 
    107 H107       28.3911  -48.5452  -54.7651 H         1 UNK         0.1257 
    108 H108       29.5430  -49.5781  -52.1346 H         1 UNK         0.0775 
    109 H109       28.3120  -48.3444  -52.2593 H         1 UNK         0.0775 
    110 H110       28.7203  -46.3920  -54.2581 H         1 UNK         0.0840 
    111 H111       28.8207  -45.7770  -52.6300 H         1 UNK         0.0840 
    112 H112       30.7172  -50.0388  -54.3819 H         1 UNK         0.2987 
    113 H113       31.1268  -51.8077  -56.8587 H         1 UNK         0.0785 
    114 H114       30.5771  -50.6147  -58.9110 H         1 UNK         0.0798 
    115 H115       32.3159  -50.5253  -58.6818 H         1 UNK         0.0798 
    116 H116       31.2973  -49.1284  -58.3272 H         1 UNK         0.0798 
    117 H117       32.7529  -51.2187  -55.5022 H         1 UNK         0.3079 
    118 H118       33.7408  -49.6709  -53.8274 H         1 UNK         0.0794 
    119 H119       35.0164  -51.0934  -55.4580 H         1 UNK         0.0786 
    120 H120       36.1214  -50.0494  -54.5878 H         1 UNK         0.0786 
    121 H121       35.6572  -49.6548  -56.2407 H         1 UNK         0.0786 
    122 H122       34.3873  -47.2149  -55.2648 H         1 UNK         0.3032 
    123 H123       36.5049  -45.9872  -52.7423 H         1 UNK         0.1094 
    124 H124       36.5756  -46.0074  -55.2662 H         1 UNK         0.0794 
    125 H125       34.9981  -45.2222  -55.3018 H         1 UNK         0.0794 
    126 H126       36.3819  -44.3948  -54.6066 H         1 UNK         0.0794 
    127 H127       33.6369  -45.4353  -52.6741 H         1 UNK         0.3016 
@<TRIPOS>BOND
     1    1    2 1    
     2    1   67 1    
     3    1   68 1    
     4    1   69 1    
     5    2    3 2    
     6    2    4 am   BACKBONE|DICT|INTERRES
     7    4    5 1    
     8    4   70 1    
     9    5    6 1    
    10    5   65 1    
    11    5   71 1    
    12    6    7 1    
    13    6   72 1    
    14    6   73 1    
    15    7    8 1    
    16    8    9 1    
    17    8   74 1    
    18    8   75 1    
    19    9   10 ar   
    20    9   14 ar   
    21   10   11 ar   
    22   10   76 1    
    23   11   12 ar   
    24   11   48 1    
    25   12   13 ar   
    26   12   77 1    
    27   13   14 ar   
    28   13   15 1    
    29   14   78 1    
    30   15   16 1    
    31   15   79 1    
    32   15   80 1    
    33   16   17 1    
    34   17   18 1    
    35   17   81 1    
    36   17   82 1    
    37   18   19 1    
    38   18   22 1    
    39   18   83 1    
    40   19   20 am   BACKBONE|DICT|INTERRES
    41   19   21 2    
    42   20   84 1    
    43   20   85 1    
    44   22   23 am   BACKBONE|DICT|INTERRES
    45   22   86 1    
    46   23   24 2    
    47   23   25 1    
    48   25   26 1    
    49   25   27 1    
    50   25   87 1    
    51   26   88 1    
    52   26   89 1    
    53   26   90 1    
    54   27   28 am   BACKBONE|DICT|INTERRES
    55   27   91 1    
    56   28   29 2    
    57   28   30 1    
    58   30   31 1    
    59   30   32 1    
    60   30   92 1    
    61   31   93 1    
    62   31   94 1    
    63   31   95 1    
    64   32   33 am   BACKBONE|DICT|INTERRES
    65   32   96 1    
    66   33   34 2    
    67   33   35 1    
    68   35   36 1    
    69   35   37 1    
    70   35   97 1    
    71   36   98 1    
    72   36   99 1    
    73   36  100 1    
    74   37   38 am   BACKBONE|DICT|INTERRES
    75   37  101 1    
    76   38   39 2    
    77   38   40 1    
    78   40   41 1    
    79   40   42 1    
    80   40  102 1    
    81   41  103 1    
    82   41  104 1    
    83   41  105 1    
    84   42   43 am   BACKBONE|DICT|INTERRES
    85   42  106 1    
    86   43   44 2    
    87   43   45 1    
    88   45   46 1    
    89   45   49 1    
    90   45  107 1    
    91   46   47 1    
    92   46  108 1    
    93   46  109 1    
    94   47   48 1    
    95   48  110 1    
    96   48  111 1    
    97   49   50 am   BACKBONE|DICT|INTERRES
    98   49  112 1    
    99   50   51 2    
   100   50   52 1    
   101   52   53 1    
   102   52   54 1    
   103   52  113 1    
   104   53  114 1    
   105   53  115 1    
   106   53  116 1    
   107   54   55 am   BACKBONE|DICT|INTERRES
   108   54  117 1    
   109   55   56 2    
   110   55   57 1    
   111   57   58 1    
   112   57   59 1    
   113   57  118 1    
   114   58  119 1    
   115   58  120 1    
   116   58  121 1    
   117   59   60 am   BACKBONE|DICT|INTERRES
   118   59  122 1    
   119   60   61 2    
   120   60   62 1    
   121   62   63 1    
   122   62   64 1    
   123   62  123 1    
   124   63  124 1    
   125   63  125 1    
   126   63  126 1    
   127   64   65 am   BACKBONE|DICT|INTERRES
   128   64  127 1    
   129   65   66 2    
@<TRIPOS>SUBSTRUCTURE
     1 UNK         1 GROUP             0       ****    0 ROOT    
