@<TRIPOS>MOLECULE
3R134
127   129    1
SMALL
USER_CHARGES


@<TRIPOS>ATOM
      1 CA         36.7071  -44.9279  -56.4527 C.3       0 UNK        -0.1968 
      2 C          35.3920  -45.4082  -55.8569 C.2       0 UNK         0.4852 
      3 O          34.5457  -45.9249  -56.5848 O.2       0 UNK        -0.5359 
      4 N          35.2181  -45.2411  -54.5392 N.am      1 UNK        -0.4300 
      5 CA         34.0154  -45.6238  -53.7839 C.3       1 UNK         0.0863 
      6 C6         33.9954  -44.9822  -52.3727 C.3       11 UNK        -0.0953 
      7 S7         34.2674  -43.1789  -52.3962 S.3       11 UNK        -0.2369 
      8 C8         32.7126  -42.5510  -51.6834 C.3       11 UNK         0.0226 
      9 C9         31.4995  -42.6839  -52.6005 C.ar      11 UNK        -0.0699 
     10 C10        30.2593  -43.0215  -52.0507 C.ar      11 UNK        -0.0804 
     11 C11        29.1120  -43.0547  -52.8475 C.ar      11 UNK        -0.0871 
     12 C12        29.2112  -42.7428  -54.2065 C.ar      11 UNK        -0.1008 
     13 C13        30.4480  -42.4383  -54.7829 C.ar      11 UNK        -0.0735 
     14 C14        31.5859  -42.4036  -53.9700 C.ar      11 UNK        -0.0945 
     15 C15        30.5616  -42.0886  -56.2647 C.3       11 UNK         0.0169 
     16 S16        29.9474  -43.4055  -57.3732 S.3       11 UNK        -0.2669 
     17 C17        28.2260  -42.8762  -57.7021 C.3       11 UNK        -0.0850 
     18 CA         27.1799  -43.9163  -57.2117 C.3       10 UNK         0.0855 
     19 C          25.7294  -43.3489  -57.1091 C.2       10 UNK         0.5543 
     20 N          24.6864  -44.1533  -57.2842 N.am      10 UNK        -0.7343 
     21 O          25.5407  -42.1685  -56.8265 O.2       10 UNK        -0.5027 
     22 N          27.2870  -45.2117  -57.8956 N.am      10 UNK        -0.4495 
     23 C          26.9486  -45.4798  -59.1637 C.2       10 UNK         0.4903 
     24 O          26.6421  -44.6236  -59.9940 O.2       10 UNK        -0.4860 
     25 CA         26.8886  -46.9656  -59.5648 C.3       9 UNK         0.0227 
     26 CB         28.1402  -47.3564  -60.3640 C.3       9 UNK        -0.1964 
     27 N          26.7060  -47.8705  -58.4188 N.am      9 UNK        -0.4231 
     28 C          25.5969  -47.9068  -57.6589 C.2       9 UNK         0.5014 
     29 O          24.6121  -47.2009  -57.8885 O.2       9 UNK        -0.5270 
     30 CA         25.5691  -48.8089  -56.4062 C.3       8 UNK         0.0284 
     31 CB         24.2560  -49.6125  -56.2977 C.3       8 UNK        -0.1977 
     32 N          26.7369  -49.6764  -56.2256 N.am      8 UNK        -0.4342 
     33 C          27.1329  -50.7061  -56.9861 C.2       8 UNK         0.5039 
     34 O          26.5195  -51.1126  -57.9747 O.2       8 UNK        -0.5547 
     35 CA         28.4749  -51.3496  -56.5840 C.3       7 UNK         0.0281 
     36 CB         28.9748  -52.3978  -57.6004 C.3       7 UNK        -0.1963 
     37 N          29.5134  -50.3443  -56.3217 N.am      7 UNK        -0.4444 
     38 C          29.9461  -49.3920  -57.1615 C.2       7 UNK         0.5104 
     39 O          29.5500  -49.2789  -58.3210 O.2       7 UNK        -0.5100 
     40 CA         30.9488  -48.3700  -56.5878 C.3       6 UNK         0.0396 
     41 CB         31.2978  -47.2496  -57.5897 C.3       6 UNK        -0.1801 
     42 N          30.4952  -47.7862  -55.3207 N.am      6 UNK        -0.4747 
     43 C          29.3443  -47.1295  -55.0997 C.2       6 UNK         0.5012 
     44 O          28.4883  -46.9248  -55.9626 O.2       6 UNK        -0.5003 
     45 CA         29.0977  -46.6829  -53.6436 C.3       5 UNK         0.0782 
     46 C46        27.7420  -45.9481  -53.4554 C.3       11 UNK        -0.0868 
     47 S47        27.6187  -45.1651  -51.8130 S.3       11 UNK        -0.2515 
     48 C48        27.7613  -43.3961  -52.2312 C.3       11 UNK         0.0199 
     49 N          29.2679  -47.8134  -52.7189 N.am      5 UNK        -0.4607 
     50 C          28.5621  -48.9550  -52.7221 C.2       4 UNK         0.5031 
     51 O          27.6635  -49.2103  -53.5265 O.2       4 UNK        -0.5119 
     52 CA         28.9846  -50.0032  -51.6742 C.3       4 UNK         0.0263 
     53 CB         28.1678  -51.3109  -51.7667 C.3       4 UNK        -0.1967 
     54 N          30.4275  -50.2775  -51.7341 N.am      4 UNK        -0.4237 
     55 C          31.1028  -50.7312  -52.7999 C.2       3 UNK         0.4908 
     56 O          30.5772  -51.0677  -53.8632 O.2       3 UNK        -0.5102 
     57 CA         32.6260  -50.7970  -52.6666 C.3       3 UNK         0.0241 
     58 CB         33.0722  -52.0603  -51.9126 C.3       3 UNK        -0.1971 
     59 N          33.1873  -50.8100  -54.0175 N.am      3 UNK        -0.4139 
     60 C          34.2313  -50.1298  -54.5047 C.2       2 UNK         0.5016 
     61 O          34.4869  -50.1293  -55.7089 O.2       2 UNK        -0.5319 
     62 CA         35.1487  -49.3247  -53.5586 C.3       2 UNK         0.0286 
     63 CB         36.6252  -49.6826  -53.8061 C.3       2 UNK        -0.1963 
     64 N          34.9906  -47.8766  -53.7176 N.am      2 UNK        -0.4790 
     65 C          33.8596  -47.1543  -53.6454 C.2       1 UNK         0.5024 
     66 O          32.7394  -47.6269  -53.4394 O.2       1 UNK        -0.4888 
     67 H67        37.2346  -45.7608  -56.9168 H         1 UNK         0.0892 
     68 H68        36.5187  -44.1750  -57.2175 H         1 UNK         0.0892 
     69 H69        37.3613  -44.4892  -55.6995 H         1 UNK         0.0892 
     70 H70        35.9367  -44.7800  -53.9986 H         1 UNK         0.3107 
     71 H71        33.1458  -45.2597  -54.3363 H         1 UNK         0.0773 
     72 H72        33.0470  -45.1966  -51.8757 H         1 UNK         0.0680 
     73 H73        34.7720  -45.4179  -51.7406 H         1 UNK         0.0680 
     74 H74        32.5375  -43.0546  -50.7314 H         1 UNK         0.0650 
     75 H75        32.8464  -41.4941  -51.4501 H         1 UNK         0.0650 
     76 H76        30.1777  -43.2373  -50.9939 H         1 UNK         0.1397 
     77 H77        28.3212  -42.7249  -54.8149 H         1 UNK         0.1363 
     78 H78        32.5398  -42.1309  -54.3998 H         1 UNK         0.1355 
     79 H79        31.6059  -41.9091  -56.5247 H         1 UNK         0.0707 
     80 H80        30.0458  -41.1476  -56.4579 H         1 UNK         0.0707 
     81 H81        28.1124  -42.6973  -58.7721 H         1 UNK         0.1034 
     82 H82        28.0580  -41.9095  -57.2262 H         1 UNK         0.1034 
     83 H83        27.4262  -44.1534  -56.1813 H         1 UNK         0.0482 
     84 H84        24.8116  -45.1323  -57.5127 H         1 UNK         0.3460 
     85 H85        23.7564  -43.7747  -57.2015 H         1 UNK         0.3460 
     86 H86        27.5825  -45.9817  -57.2995 H         1 UNK         0.2989 
     87 H87        26.0234  -47.0918  -60.2188 H         1 UNK         0.0559 
     88 H88        28.1251  -48.4102  -60.6427 H         1 UNK         0.0848 
     89 H89        29.0533  -47.1692  -59.7995 H         1 UNK         0.0848 
     90 H90        28.2081  -46.7770  -61.2856 H         1 UNK         0.0848 
     91 H91        27.4970  -48.4517  -58.1645 H         1 UNK         0.3144 
     92 H92        25.5985  -48.1221  -55.5589 H         1 UNK         0.0727 
     93 H93        24.2317  -50.2109  -55.3871 H         1 UNK         0.0790 
     94 H94        24.1195  -50.2836  -57.1460 H         1 UNK         0.0790 
     95 H95        23.3912  -48.9485  -56.2695 H         1 UNK         0.0790 
     96 H96        27.3036  -49.4454  -55.4109 H         1 UNK         0.3215 
     97 H97        28.2987  -51.8622  -55.6368 H         1 UNK         0.0863 
     98 H98        29.9096  -52.8522  -57.2726 H         1 UNK         0.0808 
     99 H99        29.1406  -51.9606  -58.5856 H         1 UNK         0.0808 
    100 H100       28.2478  -53.2019  -57.7201 H         1 UNK         0.0808 
    101 H101       29.9070  -50.3813  -55.3815 H         1 UNK         0.3118 
    102 H102       31.8652  -48.9192  -56.3681 H         1 UNK         0.0546 
    103 H103       30.4207  -46.6645  -57.8675 H         1 UNK         0.0828 
    104 H104       31.7218  -47.6605  -58.5064 H         1 UNK         0.0828 
    105 H105       32.0322  -46.5618  -57.1723 H         1 UNK         0.0828 
    106 H106       31.1377  -47.8967  -54.5408 H         1 UNK         0.3005 
    107 H107       29.8930  -45.9680  -53.4223 H         1 UNK         0.1257 
    108 H108       27.6089  -45.1795  -54.2142 H         1 UNK         0.0775 
    109 H109       26.9032  -46.6343  -53.5806 H         1 UNK         0.0775 
    110 H110       26.9453  -43.1176  -52.9002 H         1 UNK         0.0840 
    111 H111       27.6213  -42.8075  -51.3233 H         1 UNK         0.0840 
    112 H112       30.0088  -47.7111  -52.0405 H         1 UNK         0.2987 
    113 H113       28.7868  -49.5601  -50.6969 H         1 UNK         0.0785 
    114 H114       28.4729  -52.0240  -51.0011 H         1 UNK         0.0798 
    115 H115       28.2775  -51.7947  -52.7378 H         1 UNK         0.0798 
    116 H116       27.1045  -51.1152  -51.6228 H         1 UNK         0.0798 
    117 H117       30.9516  -50.0332  -50.9048 H         1 UNK         0.3079 
    118 H118       32.9226  -49.9078  -52.1120 H         1 UNK         0.0794 
    119 H119       32.6603  -52.0839  -50.9029 H         1 UNK         0.0786 
    120 H120       34.1575  -52.1046  -51.8200 H         1 UNK         0.0786 
    121 H121       32.7440  -52.9683  -52.4205 H         1 UNK         0.0786 
    122 H122       32.5835  -51.2823  -54.6776 H         1 UNK         0.3032 
    123 H123       34.9536  -49.5735  -52.5175 H         1 UNK         0.1094 
    124 H124       36.7882  -50.7562  -53.7010 H         1 UNK         0.0794 
    125 H125       36.9498  -49.4010  -54.8089 H         1 UNK         0.0794 
    126 H126       37.2812  -49.1867  -53.0902 H         1 UNK         0.0794 
    127 H127       35.8384  -47.3659  -53.9146 H         1 UNK         0.3016 
@<TRIPOS>BOND
     1    1    2 1    
     2    1   67 1    
     3    1   68 1    
     4    1   69 1    
     5    2    3 2    
     6    2    4 am   BACKBONE|DICT|INTERRES
     7    4    5 1    
     8    4   70 1    
     9    5    6 1    
    10    5   65 1    
    11    5   71 1    
    12    6    7 1    
    13    6   72 1    
    14    6   73 1    
    15    7    8 1    
    16    8    9 1    
    17    8   74 1    
    18    8   75 1    
    19    9   10 ar   
    20    9   14 ar   
    21   10   11 ar   
    22   10   76 1    
    23   11   12 ar   
    24   11   48 1    
    25   12   13 ar   
    26   12   77 1    
    27   13   14 ar   
    28   13   15 1    
    29   14   78 1    
    30   15   16 1    
    31   15   79 1    
    32   15   80 1    
    33   16   17 1    
    34   17   18 1    
    35   17   81 1    
    36   17   82 1    
    37   18   19 1    
    38   18   22 1    
    39   18   83 1    
    40   19   20 am   BACKBONE|DICT|INTERRES
    41   19   21 2    
    42   20   84 1    
    43   20   85 1    
    44   22   23 am   BACKBONE|DICT|INTERRES
    45   22   86 1    
    46   23   24 2    
    47   23   25 1    
    48   25   26 1    
    49   25   27 1    
    50   25   87 1    
    51   26   88 1    
    52   26   89 1    
    53   26   90 1    
    54   27   28 am   BACKBONE|DICT|INTERRES
    55   27   91 1    
    56   28   29 2    
    57   28   30 1    
    58   30   31 1    
    59   30   32 1    
    60   30   92 1    
    61   31   93 1    
    62   31   94 1    
    63   31   95 1    
    64   32   33 am   BACKBONE|DICT|INTERRES
    65   32   96 1    
    66   33   34 2    
    67   33   35 1    
    68   35   36 1    
    69   35   37 1    
    70   35   97 1    
    71   36   98 1    
    72   36   99 1    
    73   36  100 1    
    74   37   38 am   BACKBONE|DICT|INTERRES
    75   37  101 1    
    76   38   39 2    
    77   38   40 1    
    78   40   41 1    
    79   40   42 1    
    80   40  102 1    
    81   41  103 1    
    82   41  104 1    
    83   41  105 1    
    84   42   43 am   BACKBONE|DICT|INTERRES
    85   42  106 1    
    86   43   44 2    
    87   43   45 1    
    88   45   46 1    
    89   45   49 1    
    90   45  107 1    
    91   46   47 1    
    92   46  108 1    
    93   46  109 1    
    94   47   48 1    
    95   48  110 1    
    96   48  111 1    
    97   49   50 am   BACKBONE|DICT|INTERRES
    98   49  112 1    
    99   50   51 2    
   100   50   52 1    
   101   52   53 1    
   102   52   54 1    
   103   52  113 1    
   104   53  114 1    
   105   53  115 1    
   106   53  116 1    
   107   54   55 am   BACKBONE|DICT|INTERRES
   108   54  117 1    
   109   55   56 2    
   110   55   57 1    
   111   57   58 1    
   112   57   59 1    
   113   57  118 1    
   114   58  119 1    
   115   58  120 1    
   116   58  121 1    
   117   59   60 am   BACKBONE|DICT|INTERRES
   118   59  122 1    
   119   60   61 2    
   120   60   62 1    
   121   62   63 1    
   122   62   64 1    
   123   62  123 1    
   124   63  124 1    
   125   63  125 1    
   126   63  126 1    
   127   64   65 am   BACKBONE|DICT|INTERRES
   128   64  127 1    
   129   65   66 2    
@<TRIPOS>SUBSTRUCTURE
     1 UNK         1 GROUP             0       ****    0 ROOT    
