@<TRIPOS>MOLECULE
3R134
127   129    1
SMALL
USER_CHARGES


@<TRIPOS>ATOM
      1 CA         32.5794  -49.7685  -56.6688 C.3       0 UNK        -0.1968 
      2 C          33.7417  -48.9830  -57.2670 C.2       0 UNK         0.4852 
      3 O          34.2924  -49.4003  -58.2839 O.2       0 UNK        -0.5359 
      4 N          34.1532  -47.8495  -56.6817 N.am      1 UNK        -0.4300 
      5 CA         33.6236  -47.2402  -55.4517 C.3       1 UNK         0.0863 
      6 C6         33.8973  -45.7164  -55.4005 C.3       11 UNK        -0.0953 
      7 S7         33.3053  -44.8289  -56.8777 S.3       11 UNK        -0.2369 
      8 C8         33.3279  -43.1122  -56.2827 C.3       11 UNK         0.0226 
      9 C9         31.9709  -42.6859  -55.7447 C.ar      11 UNK        -0.0699 
     10 C10        31.6627  -42.8226  -54.3880 C.ar      11 UNK        -0.0804 
     11 C11        30.4249  -42.3961  -53.8938 C.ar      11 UNK        -0.0871 
     12 C12        29.4976  -41.8172  -54.7687 C.ar      11 UNK        -0.1008 
     13 C13        29.8013  -41.6647  -56.1256 C.ar      11 UNK        -0.0735 
     14 C14        31.0334  -42.1134  -56.6079 C.ar      11 UNK        -0.0945 
     15 C15        28.8344  -40.9643  -57.0699 C.3       11 UNK         0.0169 
     16 S16        27.7023  -42.1297  -57.8887 S.3       11 UNK        -0.2669 
     17 C17        26.3660  -42.2849  -56.6541 C.3       11 UNK        -0.0850 
     18 CA         26.3667  -43.6559  -55.9208 C.3       10 UNK         0.0855 
     19 C          25.3658  -43.6861  -54.7282 C.2       10 UNK         0.5543 
     20 N          24.5970  -44.7490  -54.5278 N.am      10 UNK        -0.7343 
     21 O          25.3128  -42.7421  -53.9443 O.2       10 UNK        -0.5027 
     22 N          26.2923  -44.8224  -56.8192 N.am      10 UNK        -0.4495 
     23 C          25.3532  -45.0963  -57.7346 C.2       10 UNK         0.4903 
     24 O          24.3902  -44.3644  -57.9659 O.2       10 UNK        -0.4860 
     25 CA         25.4719  -46.4393  -58.4871 C.3       9 UNK         0.0227 
     26 CB         25.0015  -46.3417  -59.9543 C.3       9 UNK        -0.1964 
     27 N          26.7921  -47.0782  -58.3809 N.am      9 UNK        -0.4231 
     28 C          27.9573  -46.6711  -58.9147 C.2       9 UNK         0.5014 
     29 O          28.0617  -45.7007  -59.6650 O.2       9 UNK        -0.5270 
     30 CA         29.2298  -47.4634  -58.5445 C.3       8 UNK         0.0284 
     31 CB         30.3441  -46.5188  -58.0572 C.3       8 UNK        -0.1977 
     32 N          28.9739  -48.4631  -57.5040 N.am      8 UNK        -0.4342 
     33 C          28.7701  -49.7715  -57.7137 C.2       8 UNK         0.5039 
     34 O          28.8885  -50.3134  -58.8125 O.2       8 UNK        -0.5547 
     35 CA         28.3175  -50.6200  -56.5075 C.3       7 UNK         0.0281 
     36 CB         29.4714  -51.4688  -55.9484 C.3       7 UNK        -0.1963 
     37 N          27.7264  -49.8246  -55.4265 N.am      7 UNK        -0.4444 
     38 C          26.5332  -49.2176  -55.5030 C.2       7 UNK         0.5104 
     39 O          25.7948  -49.2906  -56.4843 O.2       7 UNK        -0.5100 
     40 CA         26.1225  -48.3194  -54.3230 C.3       6 UNK         0.0396 
     41 CB         25.3301  -49.1278  -53.2848 C.3       6 UNK        -0.1801 
     42 N          27.2474  -47.6492  -53.6628 N.am      6 UNK        -0.4747 
     43 C          28.1176  -46.8171  -54.2568 C.2       6 UNK         0.5012 
     44 O          28.0747  -46.5286  -55.4512 O.2       6 UNK        -0.5003 
     45 CA         29.2681  -46.2793  -53.3857 C.3       5 UNK         0.0782 
     46 C46        28.8170  -45.0120  -52.6227 C.3       11 UNK        -0.0868 
     47 S47        30.2114  -44.2084  -51.7683 S.3       11 UNK        -0.2515 
     48 C48        30.1128  -42.5023  -52.4050 C.3       11 UNK         0.0199 
     49 N          29.7803  -47.3248  -52.4882 N.am      5 UNK        -0.4607 
     50 C          30.3572  -48.4554  -52.9124 C.2       4 UNK         0.5031 
     51 O          30.5935  -48.7000  -54.0991 O.2       4 UNK        -0.5119 
     52 CA         30.6410  -49.5257  -51.8550 C.3       4 UNK         0.0263 
     53 CB         29.3532  -50.3304  -51.5760 C.3       4 UNK        -0.1967 
     54 N          31.6943  -50.3827  -52.3867 N.am      4 UNK        -0.4237 
     55 C          32.2932  -51.4192  -51.7904 C.2       3 UNK         0.4908 
     56 O          32.0183  -51.8306  -50.6629 O.2       3 UNK        -0.5102 
     57 CA         33.4151  -52.0968  -52.5953 C.3       3 UNK         0.0241 
     58 CB         32.8322  -52.9750  -53.7162 C.3       3 UNK        -0.1971 
     59 N          34.3473  -51.1200  -53.1655 N.am      3 UNK        -0.4139 
     60 C          35.1976  -50.3749  -52.4443 C.2       2 UNK         0.5016 
     61 O          35.3543  -50.4902  -51.2281 O.2       2 UNK        -0.5319 
     62 CA         36.0078  -49.3133  -53.2074 C.3       2 UNK         0.0286 
     63 CB         37.3189  -49.9144  -53.7395 C.3       2 UNK        -0.1963 
     64 N          35.2769  -48.6841  -54.3140 N.am      2 UNK        -0.4790 
     65 C          34.1915  -47.9045  -54.1773 C.2       1 UNK         0.5024 
     66 O          33.6503  -47.6847  -53.0946 O.2       1 UNK        -0.4888 
     67 H67        31.6725  -49.1663  -56.6616 H         1 UNK         0.0892 
     68 H68        32.3768  -50.6624  -57.2585 H         1 UNK         0.0892 
     69 H69        32.7961  -50.0831  -55.6504 H         1 UNK         0.0892 
     70 H70        34.8983  -47.3294  -57.1232 H         1 UNK         0.3107 
     71 H71        32.5407  -47.3728  -55.4293 H         1 UNK         0.0773 
     72 H72        34.9657  -45.5164  -55.2964 H         1 UNK         0.0680 
     73 H73        33.4146  -45.2817  -54.5233 H         1 UNK         0.0680 
     74 H74        33.6147  -42.4629  -57.1114 H         1 UNK         0.0650 
     75 H75        34.1003  -42.9861  -55.5223 H         1 UNK         0.0650 
     76 H76        32.3893  -43.2507  -53.7113 H         1 UNK         0.1397 
     77 H77        28.5481  -41.4624  -54.3916 H         1 UNK         0.1363 
     78 H78        31.2726  -41.9964  -57.6562 H         1 UNK         0.1355 
     79 H79        28.2729  -40.1919  -56.5426 H         1 UNK         0.0707 
     80 H80        29.3990  -40.4392  -57.8421 H         1 UNK         0.0707 
     81 H81        26.4529  -41.4691  -55.9351 H         1 UNK         0.1034 
     82 H82        25.4129  -42.1204  -57.1581 H         1 UNK         0.1034 
     83 H83        27.3433  -43.7514  -55.4468 H         1 UNK         0.0482 
     84 H84        24.6224  -45.5212  -55.1717 H         1 UNK         0.3460 
     85 H85        23.9621  -44.7586  -53.7454 H         1 UNK         0.3460 
     86 H86        27.0165  -45.5147  -56.6522 H         1 UNK         0.2989 
     87 H87        24.7855  -47.1167  -57.9777 H         1 UNK         0.0559 
     88 H88        25.5744  -45.6043  -60.5169 H         1 UNK         0.0848 
     89 H89        23.9538  -46.0438  -60.0096 H         1 UNK         0.0848 
     90 H90        25.0908  -47.3000  -60.4658 H         1 UNK         0.0848 
     91 H91        26.8093  -47.9020  -57.7916 H         1 UNK         0.3144 
     92 H92        29.5782  -47.9529  -59.4560 H         1 UNK         0.0727 
     93 H93        30.0514  -45.9663  -57.1637 H         1 UNK         0.0790 
     94 H94        30.5992  -45.7825  -58.8204 H         1 UNK         0.0790 
     95 H95        31.2574  -47.0658  -57.8280 H         1 UNK         0.0790 
     96 H96        28.8334  -48.0893  -56.5714 H         1 UNK         0.3215 
     97 H97        27.5510  -51.3054  -56.8766 H         1 UNK         0.0863 
     98 H98        29.1154  -52.1710  -55.1945 H         1 UNK         0.0808 
     99 H99        30.2439  -50.8552  -55.4896 H         1 UNK         0.0808 
    100 H100       29.9447  -52.0553  -56.7371 H         1 UNK         0.0808 
    101 H101       28.2975  -49.6708  -54.6078 H         1 UNK         0.3118 
    102 H102       25.4678  -47.5423  -54.7209 H         1 UNK         0.0546 
    103 H103       25.9417  -49.9033  -52.8217 H         1 UNK         0.0828 
    104 H104       24.4730  -49.6212  -53.7457 H         1 UNK         0.0828 
    105 H105       24.9428  -48.4865  -52.4929 H         1 UNK         0.0828 
    106 H106       27.3662  -47.8341  -52.6774 H         1 UNK         0.3005 
    107 H107       30.0754  -46.0001  -54.0682 H         1 UNK         0.1257 
    108 H108       28.0510  -45.2528  -51.8831 H         1 UNK         0.0775 
    109 H109       28.3601  -44.2949  -53.3067 H         1 UNK         0.0775 
    110 H110       29.1237  -42.0989  -52.1819 H         1 UNK         0.0840 
    111 H111       30.8235  -41.8838  -51.8552 H         1 UNK         0.0840 
    112 H112       29.6410  -47.1761  -51.4991 H         1 UNK         0.2987 
    113 H113       30.9999  -49.0476  -50.9416 H         1 UNK         0.0785 
    114 H114       28.5404  -49.6784  -51.2543 H         1 UNK         0.0798 
    115 H115       29.4982  -51.0628  -50.7824 H         1 UNK         0.0798 
    116 H116       29.0129  -50.8656  -52.4634 H         1 UNK         0.0798 
    117 H117       31.9909  -50.1023  -53.3122 H         1 UNK         0.3079 
    118 H118       33.9733  -52.7421  -51.9131 H         1 UNK         0.0794 
    119 H119       32.1458  -53.7188  -53.3090 H         1 UNK         0.0786 
    120 H120       33.6176  -53.5171  -54.2434 H         1 UNK         0.0786 
    121 H121       32.2775  -52.3901  -54.4507 H         1 UNK         0.0786 
    122 H122       34.3225  -50.9805  -54.1638 H         1 UNK         0.3032 
    123 H123       36.2600  -48.5283  -52.4904 H         1 UNK         0.1094 
    124 H124       37.9522  -49.1501  -54.1904 H         1 UNK         0.0794 
    125 H125       37.8936  -50.3724  -52.9330 H         1 UNK         0.0794 
    126 H126       37.1372  -50.6861  -54.4886 H         1 UNK         0.0794 
    127 H127       35.6667  -48.7977  -55.2393 H         1 UNK         0.3016 
@<TRIPOS>BOND
     1    1    2 1    
     2    1   67 1    
     3    1   68 1    
     4    1   69 1    
     5    2    3 2    
     6    2    4 am   BACKBONE|DICT|INTERRES
     7    4    5 1    
     8    4   70 1    
     9    5    6 1    
    10    5   65 1    
    11    5   71 1    
    12    6    7 1    
    13    6   72 1    
    14    6   73 1    
    15    7    8 1    
    16    8    9 1    
    17    8   74 1    
    18    8   75 1    
    19    9   10 ar   
    20    9   14 ar   
    21   10   11 ar   
    22   10   76 1    
    23   11   12 ar   
    24   11   48 1    
    25   12   13 ar   
    26   12   77 1    
    27   13   14 ar   
    28   13   15 1    
    29   14   78 1    
    30   15   16 1    
    31   15   79 1    
    32   15   80 1    
    33   16   17 1    
    34   17   18 1    
    35   17   81 1    
    36   17   82 1    
    37   18   19 1    
    38   18   22 1    
    39   18   83 1    
    40   19   20 am   BACKBONE|DICT|INTERRES
    41   19   21 2    
    42   20   84 1    
    43   20   85 1    
    44   22   23 am   BACKBONE|DICT|INTERRES
    45   22   86 1    
    46   23   24 2    
    47   23   25 1    
    48   25   26 1    
    49   25   27 1    
    50   25   87 1    
    51   26   88 1    
    52   26   89 1    
    53   26   90 1    
    54   27   28 am   BACKBONE|DICT|INTERRES
    55   27   91 1    
    56   28   29 2    
    57   28   30 1    
    58   30   31 1    
    59   30   32 1    
    60   30   92 1    
    61   31   93 1    
    62   31   94 1    
    63   31   95 1    
    64   32   33 am   BACKBONE|DICT|INTERRES
    65   32   96 1    
    66   33   34 2    
    67   33   35 1    
    68   35   36 1    
    69   35   37 1    
    70   35   97 1    
    71   36   98 1    
    72   36   99 1    
    73   36  100 1    
    74   37   38 am   BACKBONE|DICT|INTERRES
    75   37  101 1    
    76   38   39 2    
    77   38   40 1    
    78   40   41 1    
    79   40   42 1    
    80   40  102 1    
    81   41  103 1    
    82   41  104 1    
    83   41  105 1    
    84   42   43 am   BACKBONE|DICT|INTERRES
    85   42  106 1    
    86   43   44 2    
    87   43   45 1    
    88   45   46 1    
    89   45   49 1    
    90   45  107 1    
    91   46   47 1    
    92   46  108 1    
    93   46  109 1    
    94   47   48 1    
    95   48  110 1    
    96   48  111 1    
    97   49   50 am   BACKBONE|DICT|INTERRES
    98   49  112 1    
    99   50   51 2    
   100   50   52 1    
   101   52   53 1    
   102   52   54 1    
   103   52  113 1    
   104   53  114 1    
   105   53  115 1    
   106   53  116 1    
   107   54   55 am   BACKBONE|DICT|INTERRES
   108   54  117 1    
   109   55   56 2    
   110   55   57 1    
   111   57   58 1    
   112   57   59 1    
   113   57  118 1    
   114   58  119 1    
   115   58  120 1    
   116   58  121 1    
   117   59   60 am   BACKBONE|DICT|INTERRES
   118   59  122 1    
   119   60   61 2    
   120   60   62 1    
   121   62   63 1    
   122   62   64 1    
   123   62  123 1    
   124   63  124 1    
   125   63  125 1    
   126   63  126 1    
   127   64   65 am   BACKBONE|DICT|INTERRES
   128   64  127 1    
   129   65   66 2    
@<TRIPOS>SUBSTRUCTURE
     1 UNK         1 GROUP             0       ****    0 ROOT    
