@<TRIPOS>MOLECULE
3R134
127   129    1
SMALL
USER_CHARGES


@<TRIPOS>ATOM
      1 CA         33.1854  -49.4735  -59.5078 C.3       0 UNK        -0.1968 
      2 C          33.1531  -49.5161  -57.9877 C.2       0 UNK         0.4852 
      3 O          33.0728  -50.5985  -57.4047 O.2       0 UNK        -0.5359 
      4 N          33.2345  -48.3499  -57.3345 N.am      1 UNK        -0.4300 
      5 CA         33.1219  -48.1643  -55.8795 C.3       1 UNK         0.0863 
      6 C6         32.6143  -46.7458  -55.5187 C.3       11 UNK        -0.0953 
      7 S7         30.9912  -46.4108  -56.2779 S.3       11 UNK        -0.2369 
      8 C8         31.1058  -44.6323  -56.6346 C.3       11 UNK         0.0226 
      9 C9         30.5085  -43.8204  -55.4987 C.ar      11 UNK        -0.0699 
     10 C10        31.2590  -43.5268  -54.3573 C.ar      11 UNK        -0.0804 
     11 C11        30.6816  -42.8238  -53.2951 C.ar      11 UNK        -0.0871 
     12 C12        29.3577  -42.3804  -53.4006 C.ar      11 UNK        -0.1008 
     13 C13        28.6024  -42.6503  -54.5459 C.ar      11 UNK        -0.0735 
     14 C14        29.1859  -43.3817  -55.5852 C.ar      11 UNK        -0.0945 
     15 C15        27.1453  -42.2001  -54.6231 C.3       11 UNK         0.0169 
     16 S16        26.6681  -41.5866  -56.2753 S.3       11 UNK        -0.2669 
     17 C17        24.9730  -42.2518  -56.4378 C.3       11 UNK        -0.0850 
     18 CA         24.9203  -43.7738  -56.7730 C.3       10 UNK         0.0855 
     19 C          23.4633  -44.3230  -56.8415 C.2       10 UNK         0.5543 
     20 N          23.1671  -45.3061  -57.6825 N.am      10 UNK        -0.7343 
     21 O          22.5931  -43.8753  -56.0988 O.2       10 UNK        -0.5027 
     22 N          25.7870  -44.1569  -57.9006 N.am      10 UNK        -0.4495 
     23 C          25.6824  -43.7763  -59.1774 C.2       10 UNK         0.4903 
     24 O          24.7766  -43.0632  -59.6096 O.2       10 UNK        -0.4860 
     25 CA         26.7761  -44.2663  -60.1500 C.3       9 UNK         0.0227 
     26 CB         27.9877  -43.3131  -60.1144 C.3       9 UNK        -0.1964 
     27 N          27.2036  -45.6702  -59.9956 N.am      9 UNK        -0.4231 
     28 C          27.8262  -46.2458  -58.9576 C.2       9 UNK         0.5014 
     29 O          28.0820  -45.6640  -57.8998 O.2       9 UNK        -0.5270 
     30 CA         28.2325  -47.7164  -59.1190 C.3       8 UNK         0.0284 
     31 CB         29.5376  -47.8454  -59.9231 C.3       8 UNK        -0.1977 
     32 N          28.4438  -48.2445  -57.7793 N.am      8 UNK        -0.4342 
     33 C          28.0590  -49.4333  -57.3080 C.2       8 UNK         0.5039 
     34 O          27.5934  -50.3342  -58.0071 O.2       8 UNK        -0.5547 
     35 CA         28.1956  -49.6416  -55.7870 C.3       7 UNK         0.0281 
     36 CB         29.4904  -50.4014  -55.4619 C.3       7 UNK        -0.1963 
     37 N          28.1674  -48.3774  -55.0395 N.am      7 UNK        -0.4444 
     38 C          27.0715  -47.6179  -54.8825 C.2       7 UNK         0.5104 
     39 O          25.9549  -47.9585  -55.2751 O.2       7 UNK        -0.5100 
     40 CA         27.2416  -46.2316  -54.2282 C.3       6 UNK         0.0396 
     41 CB         26.0542  -45.8645  -53.3125 C.3       6 UNK        -0.1801 
     42 N          28.5267  -46.0292  -53.5480 N.am      6 UNK        -0.4747 
     43 C          28.9622  -46.6273  -52.4300 C.2       6 UNK         0.5012 
     44 O          28.3056  -47.4396  -51.7744 O.2       6 UNK        -0.5003 
     45 CA         30.3784  -46.2290  -51.9699 C.3       5 UNK         0.0782 
     46 C46        30.3395  -44.9840  -51.0475 C.3       11 UNK        -0.0868 
     47 S47        31.9257  -44.0855  -51.1239 S.3       11 UNK        -0.2515 
     48 C48        31.4765  -42.5574  -52.0211 C.3       11 UNK         0.0199 
     49 N          31.0669  -47.3518  -51.3254 N.am      5 UNK        -0.4607 
     50 C          31.4080  -48.4911  -51.9373 C.2       4 UNK         0.5031 
     51 O          31.2667  -48.6962  -53.1455 O.2       4 UNK        -0.5119 
     52 CA         31.9674  -49.6001  -51.0402 C.3       4 UNK         0.0263 
     53 CB         30.8240  -50.2815  -50.2599 C.3       4 UNK        -0.1967 
     54 N          32.6587  -50.5682  -51.8860 N.am      4 UNK        -0.4237 
     55 C          33.4465  -51.5670  -51.4710 C.2       3 UNK         0.4908 
     56 O          33.7111  -51.7933  -50.2897 O.2       3 UNK        -0.5102 
     57 CA         34.0442  -52.4660  -52.5644 C.3       3 UNK         0.0241 
     58 CB         32.9832  -53.4330  -53.1173 C.3       3 UNK        -0.1971 
     59 N          34.6214  -51.6896  -53.6628 N.am      3 UNK        -0.4139 
     60 C          35.7959  -51.0444  -53.6021 C.2       2 UNK         0.5016 
     61 O          36.5424  -51.0624  -52.6229 O.2       2 UNK        -0.5319 
     62 CA         36.2066  -50.2420  -54.8475 C.3       2 UNK         0.0286 
     63 CB         36.9725  -51.1320  -55.8396 C.3       2 UNK        -0.1963 
     64 N          35.0488  -49.6516  -55.5209 N.am      2 UNK        -0.4790 
     65 C          34.4080  -48.5496  -55.1117 C.2       1 UNK         0.5024 
     66 O          34.7964  -47.8620  -54.1659 O.2       1 UNK        -0.4888 
     67 H67        33.2074  -48.4519  -59.8868 H         1 UNK         0.0892 
     68 H68        34.0673  -49.9945  -59.8793 H         1 UNK         0.0892 
     69 H69        32.3020  -49.9653  -59.9138 H         1 UNK         0.0892 
     70 H70        33.3285  -47.4962  -57.8655 H         1 UNK         0.3107 
     71 H71        32.3695  -48.8667  -55.5218 H         1 UNK         0.0773 
     72 H72        32.5064  -46.6323  -54.4399 H         1 UNK         0.0680 
     73 H73        33.3409  -45.9961  -55.8348 H         1 UNK         0.0680 
     74 H74        30.5656  -44.4323  -57.5614 H         1 UNK         0.0650 
     75 H75        32.1379  -44.3327  -56.8188 H         1 UNK         0.0650 
     76 H76        32.2810  -43.8728  -54.2810 H         1 UNK         0.1397 
     77 H77        28.9073  -41.8370  -52.5810 H         1 UNK         0.1363 
     78 H78        28.6051  -43.6196  -56.4651 H         1 UNK         0.1355 
     79 H79        26.5163  -43.0425  -54.3398 H         1 UNK         0.0707 
     80 H80        26.9474  -41.4109  -53.8963 H         1 UNK         0.0707 
     81 H81        24.4329  -42.0420  -55.5127 H         1 UNK         0.1034 
     82 H82        24.4621  -41.6819  -57.2156 H         1 UNK         0.1034 
     83 H83        25.3481  -44.2981  -55.9203 H         1 UNK         0.0482 
     84 H84        22.2260  -45.6651  -57.7143 H         1 UNK         0.3460 
     85 H85        23.8759  -45.6853  -58.2891 H         1 UNK         0.3460 
     86 H86        26.5932  -44.7351  -57.6702 H         1 UNK         0.2989 
     87 H87        26.3462  -44.2048  -61.1511 H         1 UNK         0.0559 
     88 H88        27.6826  -42.2879  -60.3284 H         1 UNK         0.0848 
     89 H89        28.7348  -43.5910  -60.8576 H         1 UNK         0.0848 
     90 H90        28.4728  -43.3057  -59.1375 H         1 UNK         0.0848 
     91 H91        27.0115  -46.2553  -60.7976 H         1 UNK         0.3144 
     92 H92        27.4248  -48.2566  -59.6174 H         1 UNK         0.0727 
     93 H93        30.3547  -47.2955  -59.4535 H         1 UNK         0.0790 
     94 H94        29.4183  -47.4562  -60.9348 H         1 UNK         0.0790 
     95 H95        29.8444  -48.8878  -60.0102 H         1 UNK         0.0790 
     96 H96        28.7633  -47.5414  -57.1222 H         1 UNK         0.3215 
     97 H97        27.3503  -50.2504  -55.4590 H         1 UNK         0.0863 
     98 H98        29.5966  -50.5720  -54.3904 H         1 UNK         0.0808 
     99 H99        30.3685  -49.8575  -55.8068 H         1 UNK         0.0808 
    100 H100       29.5025  -51.3770  -55.9496 H         1 UNK         0.0808 
    101 H101       29.0474  -48.0398  -54.6732 H         1 UNK         0.3118 
    102 H102       27.2438  -45.5230  -55.0567 H         1 UNK         0.0546 
    103 H103       25.9059  -46.6045  -52.5258 H         1 UNK         0.0828 
    104 H104       25.1243  -45.8108  -53.8797 H         1 UNK         0.0828 
    105 H105       26.1997  -44.8959  -52.8354 H         1 UNK         0.0828 
    106 H106       29.1412  -45.3662  -54.0057 H         1 UNK         0.3005 
    107 H107       30.9413  -45.9842  -52.8720 H         1 UNK         0.1257 
    108 H108       30.1405  -45.2698  -50.0131 H         1 UNK         0.0775 
    109 H109       29.5316  -44.3013  -51.3157 H         1 UNK         0.0775 
    110 H110       30.9161  -41.9096  -51.3452 H         1 UNK         0.0840 
    111 H111       32.3883  -42.0148  -52.2744 H         1 UNK         0.0840 
    112 H112       31.1990  -47.2750  -50.3280 H         1 UNK         0.2987 
    113 H113       32.6866  -49.1614  -50.3454 H         1 UNK         0.0785 
    114 H114       30.2723  -49.5598  -49.6562 H         1 UNK         0.0798 
    115 H115       31.1978  -51.0453  -49.5784 H         1 UNK         0.0798 
    116 H116       30.1084  -50.7552  -50.9333 H         1 UNK         0.0798 
    117 H117       32.4996  -50.4222  -52.8751 H         1 UNK         0.3079 
    118 H118       34.8379  -53.0625  -52.1088 H         1 UNK         0.0794 
    119 H119       33.4184  -54.1297  -53.8341 H         1 UNK         0.0786 
    120 H120       32.1686  -52.9054  -53.6154 H         1 UNK         0.0786 
    121 H121       32.5437  -54.0281  -52.3156 H         1 UNK         0.0786 
    122 H122       34.0840  -51.6253  -54.5151 H         1 UNK         0.3032 
    123 H123       36.8734  -49.4403  -54.5208 H         1 UNK         0.1094 
    124 H124       36.3542  -51.9491  -56.2137 H         1 UNK         0.0794 
    125 H125       37.3234  -50.5574  -56.6971 H         1 UNK         0.0794 
    126 H126       37.8500  -51.5760  -55.3673 H         1 UNK         0.0794 
    127 H127       34.6357  -50.1672  -56.2930 H         1 UNK         0.3016 
@<TRIPOS>BOND
     1    1    2 1    
     2    1   67 1    
     3    1   68 1    
     4    1   69 1    
     5    2    3 2    
     6    2    4 am   BACKBONE|DICT|INTERRES
     7    4    5 1    
     8    4   70 1    
     9    5    6 1    
    10    5   65 1    
    11    5   71 1    
    12    6    7 1    
    13    6   72 1    
    14    6   73 1    
    15    7    8 1    
    16    8    9 1    
    17    8   74 1    
    18    8   75 1    
    19    9   10 ar   
    20    9   14 ar   
    21   10   11 ar   
    22   10   76 1    
    23   11   12 ar   
    24   11   48 1    
    25   12   13 ar   
    26   12   77 1    
    27   13   14 ar   
    28   13   15 1    
    29   14   78 1    
    30   15   16 1    
    31   15   79 1    
    32   15   80 1    
    33   16   17 1    
    34   17   18 1    
    35   17   81 1    
    36   17   82 1    
    37   18   19 1    
    38   18   22 1    
    39   18   83 1    
    40   19   20 am   BACKBONE|DICT|INTERRES
    41   19   21 2    
    42   20   84 1    
    43   20   85 1    
    44   22   23 am   BACKBONE|DICT|INTERRES
    45   22   86 1    
    46   23   24 2    
    47   23   25 1    
    48   25   26 1    
    49   25   27 1    
    50   25   87 1    
    51   26   88 1    
    52   26   89 1    
    53   26   90 1    
    54   27   28 am   BACKBONE|DICT|INTERRES
    55   27   91 1    
    56   28   29 2    
    57   28   30 1    
    58   30   31 1    
    59   30   32 1    
    60   30   92 1    
    61   31   93 1    
    62   31   94 1    
    63   31   95 1    
    64   32   33 am   BACKBONE|DICT|INTERRES
    65   32   96 1    
    66   33   34 2    
    67   33   35 1    
    68   35   36 1    
    69   35   37 1    
    70   35   97 1    
    71   36   98 1    
    72   36   99 1    
    73   36  100 1    
    74   37   38 am   BACKBONE|DICT|INTERRES
    75   37  101 1    
    76   38   39 2    
    77   38   40 1    
    78   40   41 1    
    79   40   42 1    
    80   40  102 1    
    81   41  103 1    
    82   41  104 1    
    83   41  105 1    
    84   42   43 am   BACKBONE|DICT|INTERRES
    85   42  106 1    
    86   43   44 2    
    87   43   45 1    
    88   45   46 1    
    89   45   49 1    
    90   45  107 1    
    91   46   47 1    
    92   46  108 1    
    93   46  109 1    
    94   47   48 1    
    95   48  110 1    
    96   48  111 1    
    97   49   50 am   BACKBONE|DICT|INTERRES
    98   49  112 1    
    99   50   51 2    
   100   50   52 1    
   101   52   53 1    
   102   52   54 1    
   103   52  113 1    
   104   53  114 1    
   105   53  115 1    
   106   53  116 1    
   107   54   55 am   BACKBONE|DICT|INTERRES
   108   54  117 1    
   109   55   56 2    
   110   55   57 1    
   111   57   58 1    
   112   57   59 1    
   113   57  118 1    
   114   58  119 1    
   115   58  120 1    
   116   58  121 1    
   117   59   60 am   BACKBONE|DICT|INTERRES
   118   59  122 1    
   119   60   61 2    
   120   60   62 1    
   121   62   63 1    
   122   62   64 1    
   123   62  123 1    
   124   63  124 1    
   125   63  125 1    
   126   63  126 1    
   127   64   65 am   BACKBONE|DICT|INTERRES
   128   64  127 1    
   129   65   66 2    
@<TRIPOS>SUBSTRUCTURE
     1 UNK         1 GROUP             0       ****    0 ROOT    
