@<TRIPOS>MOLECULE
3R134
127   129    1
SMALL
USER_CHARGES


@<TRIPOS>ATOM
      1 CA         35.1734  -42.6882  -50.8929 C.3       0 UNK        -0.1968 
      2 C          35.6146  -44.1446  -50.8932 C.2       0 UNK         0.4852 
      3 O          36.0004  -44.6677  -49.8472 O.2       0 UNK        -0.5359 
      4 N          35.5587  -44.8014  -52.0603 N.am      1 UNK        -0.4300 
      5 CA         35.9314  -46.2078  -52.2609 C.3       1 UNK         0.0863 
      6 C6         36.0989  -46.5401  -53.7692 C.3       11 UNK        -0.0953 
      7 S7         34.5378  -46.5197  -54.7240 S.3       11 UNK        -0.2369 
      8 C8         34.5714  -44.8749  -55.5027 C.3       11 UNK         0.0226 
      9 C9         33.1784  -44.2628  -55.5423 C.ar      11 UNK        -0.0699 
     10 C10        32.5665  -43.8577  -54.3525 C.ar      11 UNK        -0.0804 
     11 C11        31.2889  -43.2950  -54.3673 C.ar      11 UNK        -0.0871 
     12 C12        30.6451  -43.0867  -55.5866 C.ar      11 UNK        -0.1008 
     13 C13        31.2204  -43.5274  -56.7806 C.ar      11 UNK        -0.0735 
     14 C14        32.4938  -44.1089  -56.7537 C.ar      11 UNK        -0.0945 
     15 C15        30.4539  -43.3922  -58.0898 C.3       11 UNK         0.0169 
     16 S16        29.0239  -44.5256  -58.1587 S.3       11 UNK        -0.2669 
     17 C17        27.7433  -43.5778  -57.2555 C.3       11 UNK        -0.0850 
     18 CA         26.2875  -43.9087  -57.6676 C.3       10 UNK         0.0855 
     19 C          25.9691  -43.5037  -59.1386 C.2       10 UNK         0.5543 
     20 N          25.5835  -44.4183  -60.0215 N.am      10 UNK        -0.7343 
     21 O          26.0596  -42.3266  -59.4793 O.2       10 UNK        -0.5027 
     22 N          25.9390  -45.2881  -57.3067 N.am      10 UNK        -0.4495 
     23 C          24.6934  -45.7487  -57.1375 C.2       10 UNK         0.4903 
     24 O          23.6930  -45.0291  -57.1504 O.2       10 UNK        -0.4860 
     25 CA         24.5418  -47.2714  -56.9349 C.3       9 UNK         0.0227 
     26 CB         23.1506  -47.7893  -57.3555 C.3       9 UNK        -0.1964 
     27 N          25.5983  -48.0592  -57.5847 N.am      9 UNK        -0.4231 
     28 C          25.9373  -48.0569  -58.8851 C.2       9 UNK         0.5014 
     29 O          25.3717  -47.3689  -59.7365 O.2       9 UNK        -0.5270 
     30 CA         27.1260  -48.9345  -59.3134 C.3       8 UNK         0.0284 
     31 CB         28.2453  -48.0765  -59.9288 C.3       8 UNK        -0.1977 
     32 N          27.6711  -49.7147  -58.1978 N.am      8 UNK        -0.4342 
     33 C          27.2866  -50.9638  -57.9047 C.2       8 UNK         0.5039 
     34 O          26.4669  -51.5998  -58.5690 O.2       8 UNK        -0.5547 
     35 CA         27.9044  -51.6236  -56.6624 C.3       7 UNK         0.0281 
     36 CB         29.2586  -52.2612  -57.0104 C.3       7 UNK        -0.1963 
     37 N          28.0465  -50.7390  -55.4995 N.am      7 UNK        -0.4444 
     38 C          27.0168  -50.2074  -54.8227 C.2       7 UNK         0.5104 
     39 O          25.8481  -50.2589  -55.2052 O.2       7 UNK        -0.5100 
     40 CA         27.3346  -49.5229  -53.4825 C.3       6 UNK         0.0396 
     41 CB         27.7954  -50.5492  -52.4345 C.3       6 UNK        -0.1801 
     42 N          28.3468  -48.4816  -53.6182 N.am      6 UNK        -0.4747 
     43 C          28.1344  -47.2762  -54.1652 C.2       6 UNK         0.5012 
     44 O          27.0359  -46.8748  -54.5501 O.2       6 UNK        -0.5003 
     45 CA         29.3878  -46.4000  -54.3640 C.3       5 UNK         0.0782 
     46 C46        29.8240  -45.7265  -53.0299 C.3       11 UNK        -0.0868 
     47 S47        29.1138  -44.0563  -52.8254 S.3       11 UNK        -0.2515 
     48 C48        30.5691  -42.9769  -53.0655 C.3       11 UNK         0.0199 
     49 N          30.4817  -47.1583  -54.9844 N.am      5 UNK        -0.4607 
     50 C          30.4016  -47.8513  -56.1318 C.2       4 UNK         0.5031 
     51 O          29.3984  -47.9067  -56.8411 O.2       4 UNK        -0.5119 
     52 CA         31.6264  -48.6899  -56.5246 C.3       4 UNK         0.0263 
     53 CB         32.5579  -47.8963  -57.4519 C.3       4 UNK        -0.1967 
     54 N          32.3573  -49.1968  -55.3573 N.am      4 UNK        -0.4237 
     55 C          31.8675  -50.1383  -54.5354 C.2       3 UNK         0.4908 
     56 O          30.7691  -50.6734  -54.6852 O.2       3 UNK        -0.5102 
     57 CA         32.7230  -50.5210  -53.3195 C.3       3 UNK         0.0241 
     58 CB         34.0633  -51.1413  -53.7494 C.3       3 UNK        -0.1971 
     59 N          32.9693  -49.4035  -52.4073 N.am      3 UNK        -0.4139 
     60 C          32.0463  -48.6382  -51.8101 C.2       2 UNK         0.5016 
     61 O          30.8348  -48.7515  -51.9968 O.2       2 UNK        -0.5319 
     62 CA         32.5532  -47.5422  -50.8526 C.3       2 UNK         0.0286 
     63 CB         32.8041  -48.1096  -49.4424 C.3       2 UNK        -0.1963 
     64 N          33.7148  -46.7882  -51.3511 N.am      2 UNK        -0.4790 
     65 C          34.9729  -47.2062  -51.5715 C.2       1 UNK         0.5024 
     66 O          35.3721  -48.3431  -51.3159 O.2       1 UNK        -0.4888 
     67 H67        34.3324  -42.5514  -50.2136 H         1 UNK         0.0892 
     68 H68        35.9898  -42.0497  -50.5566 H         1 UNK         0.0892 
     69 H69        34.8671  -42.3519  -51.8833 H         1 UNK         0.0892 
     70 H70        35.2710  -44.3078  -52.8911 H         1 UNK         0.3107 
     71 H71        36.9064  -46.3469  -51.7887 H         1 UNK         0.0773 
     72 H72        36.8181  -45.8603  -54.2285 H         1 UNK         0.0680 
     73 H73        36.5363  -47.5342  -53.8792 H         1 UNK         0.0680 
     74 H74        34.9876  -44.9677  -56.5069 H         1 UNK         0.0650 
     75 H75        35.2355  -44.2049  -54.9560 H         1 UNK         0.0650 
     76 H76        33.0720  -44.0100  -53.4108 H         1 UNK         0.1397 
     77 H77        29.6685  -42.6276  -55.5911 H         1 UNK         0.1363 
     78 H78        32.9503  -44.4449  -57.6745 H         1 UNK         0.1355 
     79 H79        31.1083  -43.6180  -58.9330 H         1 UNK         0.0707 
     80 H80        30.1284  -42.3604  -58.2283 H         1 UNK         0.0707 
     81 H81        27.8557  -43.7778  -56.1895 H         1 UNK         0.1034 
     82 H82        27.9252  -42.5089  -57.3801 H         1 UNK         0.1034 
     83 H83        25.6496  -43.2649  -57.0588 H         1 UNK         0.0482 
     84 H84        25.3770  -44.1329  -60.9649 H         1 UNK         0.3460 
     85 H85        25.5058  -45.3973  -59.7649 H         1 UNK         0.3460 
     86 H86        26.7055  -45.9450  -57.2800 H         1 UNK         0.2989 
     87 H87        24.6497  -47.4475  -55.8639 H         1 UNK         0.0559 
     88 H88        22.9501  -47.5970  -58.4101 H         1 UNK         0.0848 
     89 H89        22.3604  -47.3054  -56.7804 H         1 UNK         0.0848 
     90 H90        23.0601  -48.8623  -57.1864 H         1 UNK         0.0848 
     91 H91        26.1191  -48.6687  -56.9676 H         1 UNK         0.3144 
     92 H92        26.7627  -49.6075  -60.0928 H         1 UNK         0.0727 
     93 H93        28.5976  -47.3116  -59.2376 H         1 UNK         0.0790 
     94 H94        27.8947  -47.5620  -60.8245 H         1 UNK         0.0790 
     95 H95        29.1009  -48.6861  -60.2194 H         1 UNK         0.0790 
     96 H96        28.3409  -49.2318  -57.5992 H         1 UNK         0.3215 
     97 H97        27.2305  -52.4298  -56.3642 H         1 UNK         0.0863 
     98 H98        29.6643  -52.8180  -56.1654 H         1 UNK         0.0808 
     99 H99        29.9945  -51.5130  -57.3028 H         1 UNK         0.0808 
    100 H100       29.1589  -52.9616  -57.8408 H         1 UNK         0.0808 
    101 H101       28.9884  -50.6381  -55.1224 H         1 UNK         0.3118 
    102 H102       26.4151  -49.0619  -53.1154 H         1 UNK         0.0546 
    103 H103       27.0593  -51.3454  -52.3158 H         1 UNK         0.0828 
    104 H104       27.9292  -50.0824  -51.4586 H         1 UNK         0.0828 
    105 H105       28.7424  -51.0156  -52.7095 H         1 UNK         0.0828 
    106 H106       29.2845  -48.7099  -53.2979 H         1 UNK         0.3005 
    107 H107       29.1263  -45.6266  -55.0891 H         1 UNK         0.1257 
    108 H108       30.9095  -45.6507  -52.9729 H         1 UNK         0.0775 
    109 H109       29.5459  -46.3239  -52.1594 H         1 UNK         0.0775 
    110 H110       30.2459  -41.9351  -53.0732 H         1 UNK         0.0840 
    111 H111       31.2385  -43.0859  -52.2107 H         1 UNK         0.0840 
    112 H112       31.3500  -47.1928  -54.4739 H         1 UNK         0.2987 
    113 H113       31.2649  -49.5520  -57.0876 H         1 UNK         0.0785 
    114 H114       32.8848  -46.9633  -56.9979 H         1 UNK         0.0798 
    115 H115       32.0444  -47.6349  -58.3783 H         1 UNK         0.0798 
    116 H116       33.4430  -48.4723  -57.7218 H         1 UNK         0.0798 
    117 H117       33.2568  -48.7816  -55.1568 H         1 UNK         0.3079 
    118 H118       32.1670  -51.2755  -52.7593 H         1 UNK         0.0794 
    119 H119       34.7125  -50.4145  -54.2394 H         1 UNK         0.0786 
    120 H120       33.9077  -51.9657  -54.4469 H         1 UNK         0.0786 
    121 H121       34.6038  -51.5429  -52.8920 H         1 UNK         0.0786 
    122 H122       33.9368  -49.2199  -52.1558 H         1 UNK         0.3032 
    123 H123       31.7443  -46.8148  -50.7652 H         1 UNK         0.1094 
    124 H124       33.1052  -47.3251  -48.7482 H         1 UNK         0.0794 
    125 H125       31.8977  -48.5662  -49.0423 H         1 UNK         0.0794 
    126 H126       33.5790  -48.8765  -49.4381 H         1 UNK         0.0794 
    127 H127       33.5147  -45.8368  -51.6223 H         1 UNK         0.3016 
@<TRIPOS>BOND
     1    1    2 1    
     2    1   67 1    
     3    1   68 1    
     4    1   69 1    
     5    2    3 2    
     6    2    4 am   BACKBONE|DICT|INTERRES
     7    4    5 1    
     8    4   70 1    
     9    5    6 1    
    10    5   65 1    
    11    5   71 1    
    12    6    7 1    
    13    6   72 1    
    14    6   73 1    
    15    7    8 1    
    16    8    9 1    
    17    8   74 1    
    18    8   75 1    
    19    9   10 ar   
    20    9   14 ar   
    21   10   11 ar   
    22   10   76 1    
    23   11   12 ar   
    24   11   48 1    
    25   12   13 ar   
    26   12   77 1    
    27   13   14 ar   
    28   13   15 1    
    29   14   78 1    
    30   15   16 1    
    31   15   79 1    
    32   15   80 1    
    33   16   17 1    
    34   17   18 1    
    35   17   81 1    
    36   17   82 1    
    37   18   19 1    
    38   18   22 1    
    39   18   83 1    
    40   19   20 am   BACKBONE|DICT|INTERRES
    41   19   21 2    
    42   20   84 1    
    43   20   85 1    
    44   22   23 am   BACKBONE|DICT|INTERRES
    45   22   86 1    
    46   23   24 2    
    47   23   25 1    
    48   25   26 1    
    49   25   27 1    
    50   25   87 1    
    51   26   88 1    
    52   26   89 1    
    53   26   90 1    
    54   27   28 am   BACKBONE|DICT|INTERRES
    55   27   91 1    
    56   28   29 2    
    57   28   30 1    
    58   30   31 1    
    59   30   32 1    
    60   30   92 1    
    61   31   93 1    
    62   31   94 1    
    63   31   95 1    
    64   32   33 am   BACKBONE|DICT|INTERRES
    65   32   96 1    
    66   33   34 2    
    67   33   35 1    
    68   35   36 1    
    69   35   37 1    
    70   35   97 1    
    71   36   98 1    
    72   36   99 1    
    73   36  100 1    
    74   37   38 am   BACKBONE|DICT|INTERRES
    75   37  101 1    
    76   38   39 2    
    77   38   40 1    
    78   40   41 1    
    79   40   42 1    
    80   40  102 1    
    81   41  103 1    
    82   41  104 1    
    83   41  105 1    
    84   42   43 am   BACKBONE|DICT|INTERRES
    85   42  106 1    
    86   43   44 2    
    87   43   45 1    
    88   45   46 1    
    89   45   49 1    
    90   45  107 1    
    91   46   47 1    
    92   46  108 1    
    93   46  109 1    
    94   47   48 1    
    95   48  110 1    
    96   48  111 1    
    97   49   50 am   BACKBONE|DICT|INTERRES
    98   49  112 1    
    99   50   51 2    
   100   50   52 1    
   101   52   53 1    
   102   52   54 1    
   103   52  113 1    
   104   53  114 1    
   105   53  115 1    
   106   53  116 1    
   107   54   55 am   BACKBONE|DICT|INTERRES
   108   54  117 1    
   109   55   56 2    
   110   55   57 1    
   111   57   58 1    
   112   57   59 1    
   113   57  118 1    
   114   58  119 1    
   115   58  120 1    
   116   58  121 1    
   117   59   60 am   BACKBONE|DICT|INTERRES
   118   59  122 1    
   119   60   61 2    
   120   60   62 1    
   121   62   63 1    
   122   62   64 1    
   123   62  123 1    
   124   63  124 1    
   125   63  125 1    
   126   63  126 1    
   127   64   65 am   BACKBONE|DICT|INTERRES
   128   64  127 1    
   129   65   66 2    
@<TRIPOS>SUBSTRUCTURE
     1 UNK         1 GROUP             0       ****    0 ROOT    
