@<TRIPOS>MOLECULE
3R134
127   129    1
SMALL
USER_CHARGES


@<TRIPOS>ATOM
      1 CA         32.4076  -47.0170  -50.7086 C.3       0 UNK        -0.1968 
      2 C          33.8596  -46.5898  -50.8502 C.2       0 UNK         0.4852 
      3 O          34.6267  -46.7152  -49.8951 O.2       0 UNK        -0.5359 
      4 N          34.2410  -46.0802  -52.0284 N.am      1 UNK        -0.4300 
      5 CA         35.6046  -45.6347  -52.3372 C.3       1 UNK         0.0863 
      6 C6         35.6282  -44.5907  -53.4794 C.3       11 UNK        -0.0953 
      7 S7         34.8783  -45.1617  -55.0468 S.3       11 UNK        -0.2369 
      8 C8         34.1200  -43.6264  -55.6623 C.3       11 UNK         0.0226 
      9 C9         32.6108  -43.6103  -55.4654 C.ar      11 UNK        -0.0699 
     10 C10        32.0557  -43.4520  -54.1900 C.ar      11 UNK        -0.0804 
     11 C11        30.6674  -43.4019  -54.0221 C.ar      11 UNK        -0.0871 
     12 C12        29.8376  -43.5071  -55.1402 C.ar      11 UNK        -0.1008 
     13 C13        30.3796  -43.6660  -56.4172 C.ar      11 UNK        -0.0735 
     14 C14        31.7660  -43.7224  -56.5744 C.ar      11 UNK        -0.0945 
     15 C15        29.4575  -43.7864  -57.6177 C.3       11 UNK         0.0169 
     16 S16        28.5055  -42.2571  -57.8855 S.3       11 UNK        -0.2669 
     17 C17        27.0161  -42.9800  -58.6381 C.3       11 UNK        -0.0850 
     18 CA         26.0728  -43.6114  -57.5608 C.3       10 UNK         0.0855 
     19 C          24.7770  -42.7912  -57.2887 C.2       10 UNK         0.5543 
     20 N          24.8898  -41.4751  -57.1666 N.am      10 UNK        -0.7343 
     21 O          23.6803  -43.3287  -57.1415 O.2       10 UNK        -0.5027 
     22 N          25.8486  -45.0427  -57.8033 N.am      10 UNK        -0.4495 
     23 C          25.2592  -45.5749  -58.8818 C.2       10 UNK         0.4903 
     24 O          24.7946  -44.9117  -59.8113 O.2       10 UNK        -0.4860 
     25 CA         25.2164  -47.1130  -58.9360 C.3       9 UNK         0.0227 
     26 CB         24.7989  -47.6602  -60.3178 C.3       9 UNK        -0.1964 
     27 N          26.4697  -47.7352  -58.4903 N.am      9 UNK        -0.4231 
     28 C          27.7011  -47.5862  -59.0092 C.2       9 UNK         0.5014 
     29 O          27.9568  -46.8596  -59.9705 O.2       9 UNK        -0.5270 
     30 CA         28.8561  -48.3766  -58.3544 C.3       8 UNK         0.0284 
     31 CB         29.8777  -47.4264  -57.7061 C.3       8 UNK        -0.1977 
     32 N          28.4154  -49.3408  -57.3451 N.am      8 UNK        -0.4342 
     33 C          27.7671  -50.4871  -57.5883 C.2       8 UNK         0.5039 
     34 O          27.5562  -50.9347  -58.7156 O.2       8 UNK        -0.5547 
     35 CA         27.2033  -51.2186  -56.3595 C.3       7 UNK         0.0281 
     36 CB         28.2637  -52.1445  -55.7417 C.3       7 UNK        -0.1963 
     37 N          26.6959  -50.2828  -55.3469 N.am      7 UNK        -0.4444 
     38 C          25.5940  -49.5314  -55.4953 C.2       7 UNK         0.5104 
     39 O          24.8707  -49.5738  -56.4893 O.2       7 UNK        -0.5100 
     40 CA         25.2567  -48.5401  -54.3684 C.3       6 UNK         0.0396 
     41 CB         24.4499  -49.2372  -53.2620 C.3       6 UNK        -0.1801 
     42 N          26.4465  -47.9155  -53.7876 N.am      6 UNK        -0.4747 
     43 C          27.1913  -46.9754  -54.3900 C.2       6 UNK         0.5012 
     44 O          26.9239  -46.4878  -55.4900 O.2       6 UNK        -0.5003 
     45 CA         28.4770  -46.5437  -53.6504 C.3       5 UNK         0.0782 
     46 C46        28.1916  -45.3573  -52.6958 C.3       11 UNK        -0.0868 
     47 S47        29.6891  -44.7809  -51.8184 S.3       11 UNK        -0.2515 
     48 C48        30.0604  -43.2005  -52.6413 C.3       11 UNK         0.0199 
     49 N          29.1313  -47.6598  -52.9523 N.am      5 UNK        -0.4607 
     50 C          29.6051  -48.7599  -53.5463 C.2       4 UNK         0.5031 
     51 O          29.4508  -49.0121  -54.7425 O.2       4 UNK        -0.5119 
     52 CA         30.3294  -49.7726  -52.6468 C.3       4 UNK         0.0263 
     53 CB         29.3444  -50.8298  -52.1225 C.3       4 UNK        -0.1967 
     54 N          31.4162  -50.4335  -53.3717 N.am      4 UNK        -0.4237 
     55 C          32.5270  -49.8088  -53.7815 C.2       3 UNK         0.4908 
     56 O          32.8040  -48.6373  -53.5022 O.2       3 UNK        -0.5102 
     57 CA         33.4778  -50.6184  -54.6776 C.3       3 UNK         0.0241 
     58 CB         32.9907  -50.5863  -56.1367 C.3       3 UNK        -0.1971 
     59 N          34.8120  -50.0271  -54.6053 N.am      3 UNK        -0.4139 
     60 C          35.6777  -50.2518  -53.6084 C.2       2 UNK         0.5016 
     61 O          35.5991  -51.1891  -52.8134 O.2       2 UNK        -0.5319 
     62 CA         36.7404  -49.1706  -53.4107 C.3       2 UNK         0.0286 
     63 CB         37.6632  -49.0271  -54.6386 C.3       2 UNK        -0.1963 
     64 N          36.0332  -47.9246  -53.1188 N.am      2 UNK        -0.4790 
     65 C          36.5690  -46.8096  -52.6097 C.2       1 UNK         0.5024 
     66 O          37.7658  -46.6850  -52.3459 O.2       1 UNK        -0.4888 
     67 H67        31.8634  -46.9078  -51.6460 H         1 UNK         0.0892 
     68 H68        32.3557  -48.0611  -50.4031 H         1 UNK         0.0892 
     69 H69        31.9080  -46.4117  -49.9527 H         1 UNK         0.0892 
     70 H70        33.5811  -46.0349  -52.7928 H         1 UNK         0.3107 
     71 H71        35.9922  -45.1310  -51.4489 H         1 UNK         0.0773 
     72 H72        35.1067  -43.6955  -53.1390 H         1 UNK         0.0680 
     73 H73        36.6514  -44.2700  -53.6847 H         1 UNK         0.0680 
     74 H74        34.3628  -43.5336  -56.7212 H         1 UNK         0.0650 
     75 H75        34.5649  -42.7551  -55.1814 H         1 UNK         0.0650 
     76 H76        32.7040  -43.3597  -53.3299 H         1 UNK         0.1397 
     77 H77        28.7643  -43.4543  -55.0246 H         1 UNK         0.1363 
     78 H78        32.1882  -43.8437  -57.5625 H         1 UNK         0.1355 
     79 H79        28.7788  -44.6220  -57.4437 H         1 UNK         0.0707 
     80 H80        30.0141  -44.0251  -58.5251 H         1 UNK         0.0707 
     81 H81        26.5110  -42.2163  -59.2318 H         1 UNK         0.1034 
     82 H82        27.3444  -43.7203  -59.3700 H         1 UNK         0.1034 
     83 H83        26.5810  -43.6101  -56.5957 H         1 UNK         0.0482 
     84 H84        24.0663  -40.9267  -56.9736 H         1 UNK         0.3460 
     85 H85        25.7873  -41.0229  -57.2537 H         1 UNK         0.3460 
     86 H86        26.1798  -45.6630  -57.0690 H         1 UNK         0.2989 
     87 H87        24.4534  -47.4181  -58.2184 H         1 UNK         0.0559 
     88 H88        23.8108  -47.2953  -60.6012 H         1 UNK         0.0848 
     89 H89        24.7523  -48.7492  -60.3150 H         1 UNK         0.0848 
     90 H90        25.4948  -47.3560  -61.1006 H         1 UNK         0.0848 
     91 H91        26.3743  -48.3548  -57.6967 H         1 UNK         0.3144 
     92 H92        29.3598  -48.9269  -59.1515 H         1 UNK         0.0727 
     93 H93        29.4375  -46.8684  -56.8795 H         1 UNK         0.0790 
     94 H94        30.2583  -46.7030  -58.4280 H         1 UNK         0.0790 
     95 H95        30.7355  -47.9742  -57.3147 H         1 UNK         0.0790 
     96 H96        28.6284  -49.1098  -56.3751 H         1 UNK         0.3215 
     97 H97        26.3678  -51.8368  -56.6961 H         1 UNK         0.0863 
     98 H98        27.8640  -52.6948  -54.8900 H         1 UNK         0.0808 
     99 H99        29.1431  -51.5930  -55.4087 H         1 UNK         0.0808 
    100 H100       28.6036  -52.8816  -56.4706 H         1 UNK         0.0808 
    101 H101       27.2674  -50.1426  -54.5272 H         1 UNK         0.3118 
    102 H102       24.6325  -47.7519  -54.7957 H         1 UNK         0.0546 
    103 H103       25.0229  -50.0280  -52.7764 H         1 UNK         0.0828 
    104 H104       23.5456  -49.6930  -53.6681 H         1 UNK         0.0828 
    105 H105       24.1359  -48.5297  -52.4943 H         1 UNK         0.0828 
    106 H106       26.7432  -48.2480  -52.8813 H         1 UNK         0.3005 
    107 H107       29.1752  -46.2017  -54.4177 H         1 UNK         0.1257 
    108 H108       27.4609  -45.6489  -51.9389 H         1 UNK         0.0775 
    109 H109       27.7398  -44.5235  -53.2349 H         1 UNK         0.0775 
    110 H110       29.1556  -42.5939  -52.7050 H         1 UNK         0.0840 
    111 H111       30.7531  -42.6374  -52.0141 H         1 UNK         0.0840 
    112 H112       29.2897  -47.5235  -51.9645 H         1 UNK         0.2987 
    113 H113       30.7587  -49.2451  -51.7939 H         1 UNK         0.0785 
    114 H114       28.5354  -50.3660  -51.5565 H         1 UNK         0.0798 
    115 H115       29.8400  -51.5338  -51.4536 H         1 UNK         0.0798 
    116 H116       28.8901  -51.4021  -52.9308 H         1 UNK         0.0798 
    117 H117       31.2514  -51.3837  -53.6693 H         1 UNK         0.3079 
    118 H118       33.5109  -51.6534  -54.3298 H         1 UNK         0.0794 
    119 H119       33.6642  -51.1391  -56.7919 H         1 UNK         0.0786 
    120 H120       32.9160  -49.5657  -56.5157 H         1 UNK         0.0786 
    121 H121       32.0024  -51.0390  -56.2315 H         1 UNK         0.0786 
    122 H122       34.9581  -49.2079  -55.1774 H         1 UNK         0.3032 
    123 H123       37.3440  -49.4459  -52.5429 H         1 UNK         0.1094 
    124 H124       37.1304  -48.6498  -55.5117 H         1 UNK         0.0794 
    125 H125       38.4889  -48.3447  -54.4366 H         1 UNK         0.0794 
    126 H126       38.1020  -49.9879  -54.9104 H         1 UNK         0.0794 
    127 H127       35.0272  -47.9513  -53.2479 H         1 UNK         0.3016 
@<TRIPOS>BOND
     1    1    2 1    
     2    1   67 1    
     3    1   68 1    
     4    1   69 1    
     5    2    3 2    
     6    2    4 am   BACKBONE|DICT|INTERRES
     7    4    5 1    
     8    4   70 1    
     9    5    6 1    
    10    5   65 1    
    11    5   71 1    
    12    6    7 1    
    13    6   72 1    
    14    6   73 1    
    15    7    8 1    
    16    8    9 1    
    17    8   74 1    
    18    8   75 1    
    19    9   10 ar   
    20    9   14 ar   
    21   10   11 ar   
    22   10   76 1    
    23   11   12 ar   
    24   11   48 1    
    25   12   13 ar   
    26   12   77 1    
    27   13   14 ar   
    28   13   15 1    
    29   14   78 1    
    30   15   16 1    
    31   15   79 1    
    32   15   80 1    
    33   16   17 1    
    34   17   18 1    
    35   17   81 1    
    36   17   82 1    
    37   18   19 1    
    38   18   22 1    
    39   18   83 1    
    40   19   20 am   BACKBONE|DICT|INTERRES
    41   19   21 2    
    42   20   84 1    
    43   20   85 1    
    44   22   23 am   BACKBONE|DICT|INTERRES
    45   22   86 1    
    46   23   24 2    
    47   23   25 1    
    48   25   26 1    
    49   25   27 1    
    50   25   87 1    
    51   26   88 1    
    52   26   89 1    
    53   26   90 1    
    54   27   28 am   BACKBONE|DICT|INTERRES
    55   27   91 1    
    56   28   29 2    
    57   28   30 1    
    58   30   31 1    
    59   30   32 1    
    60   30   92 1    
    61   31   93 1    
    62   31   94 1    
    63   31   95 1    
    64   32   33 am   BACKBONE|DICT|INTERRES
    65   32   96 1    
    66   33   34 2    
    67   33   35 1    
    68   35   36 1    
    69   35   37 1    
    70   35   97 1    
    71   36   98 1    
    72   36   99 1    
    73   36  100 1    
    74   37   38 am   BACKBONE|DICT|INTERRES
    75   37  101 1    
    76   38   39 2    
    77   38   40 1    
    78   40   41 1    
    79   40   42 1    
    80   40  102 1    
    81   41  103 1    
    82   41  104 1    
    83   41  105 1    
    84   42   43 am   BACKBONE|DICT|INTERRES
    85   42  106 1    
    86   43   44 2    
    87   43   45 1    
    88   45   46 1    
    89   45   49 1    
    90   45  107 1    
    91   46   47 1    
    92   46  108 1    
    93   46  109 1    
    94   47   48 1    
    95   48  110 1    
    96   48  111 1    
    97   49   50 am   BACKBONE|DICT|INTERRES
    98   49  112 1    
    99   50   51 2    
   100   50   52 1    
   101   52   53 1    
   102   52   54 1    
   103   52  113 1    
   104   53  114 1    
   105   53  115 1    
   106   53  116 1    
   107   54   55 am   BACKBONE|DICT|INTERRES
   108   54  117 1    
   109   55   56 2    
   110   55   57 1    
   111   57   58 1    
   112   57   59 1    
   113   57  118 1    
   114   58  119 1    
   115   58  120 1    
   116   58  121 1    
   117   59   60 am   BACKBONE|DICT|INTERRES
   118   59  122 1    
   119   60   61 2    
   120   60   62 1    
   121   62   63 1    
   122   62   64 1    
   123   62  123 1    
   124   63  124 1    
   125   63  125 1    
   126   63  126 1    
   127   64   65 am   BACKBONE|DICT|INTERRES
   128   64  127 1    
   129   65   66 2    
@<TRIPOS>SUBSTRUCTURE
     1 UNK         1 GROUP             0       ****    0 ROOT    
