@<TRIPOS>MOLECULE
3R134
127   129    1
SMALL
USER_CHARGES


@<TRIPOS>ATOM
      1 CA         36.9693  -45.0597  -52.3687 C.3       0 UNK        -0.1968 
      2 C          35.5375  -45.5615  -52.4718 C.2       0 UNK         0.4852 
      3 O          35.3073  -46.6516  -52.9921 O.2       0 UNK        -0.5359 
      4 N          34.5715  -44.7889  -51.9579 N.am      1 UNK        -0.4300 
      5 CA         33.1254  -45.0549  -52.0386 C.3       1 UNK         0.0863 
      6 C6         32.2859  -43.8119  -51.6443 C.3       11 UNK        -0.0953 
      7 S7         32.7746  -42.3038  -52.5520 S.3       11 UNK        -0.2369 
      8 C8         31.3924  -42.0854  -53.7252 C.3       11 UNK         0.0226 
      9 C9         31.2689  -43.1692  -54.7970 C.ar      11 UNK        -0.0699 
     10 C10        32.3886  -43.8323  -55.3194 C.ar      11 UNK        -0.0804 
     11 C11        32.2454  -44.8083  -56.3115 C.ar      11 UNK        -0.0871 
     12 C12        30.9731  -45.0873  -56.8131 C.ar      11 UNK        -0.1008 
     13 C13        29.8475  -44.4390  -56.3027 C.ar      11 UNK        -0.0735 
     14 C14        30.0000  -43.4819  -55.2968 C.ar      11 UNK        -0.0945 
     15 C15        28.4699  -44.8034  -56.8253 C.3       11 UNK         0.0169 
     16 S16        28.0625  -43.8922  -58.3506 S.3       11 UNK        -0.2669 
     17 C17        27.0698  -42.4511  -57.8102 C.3       11 UNK        -0.0850 
     18 CA         25.9982  -42.7069  -56.7128 C.3       10 UNK         0.0855 
     19 C          25.0853  -41.4606  -56.5218 C.2       10 UNK         0.5543 
     20 N          23.7751  -41.5603  -56.7093 N.am      10 UNK        -0.7343 
     21 O          25.5778  -40.3843  -56.1931 O.2       10 UNK        -0.5027 
     22 N          25.2817  -43.9788  -56.9161 N.am      10 UNK        -0.4495 
     23 C          24.6891  -44.6811  -55.9451 C.2       10 UNK         0.4903 
     24 O          24.5922  -44.2883  -54.7824 O.2       10 UNK        -0.4860 
     25 CA         24.1452  -46.0736  -56.3028 C.3       9 UNK         0.0227 
     26 CB         22.6896  -45.9976  -56.8044 C.3       9 UNK        -0.1964 
     27 N          25.0038  -46.8598  -57.2029 N.am      9 UNK        -0.4231 
     28 C          25.2245  -46.7060  -58.5190 C.2       9 UNK         0.5014 
     29 O          24.7680  -45.7661  -59.1715 O.2       9 UNK        -0.5270 
     30 CA         26.0955  -47.7600  -59.2424 C.3       8 UNK         0.0284 
     31 CB         27.2513  -47.1093  -60.0212 C.3       8 UNK        -0.1977 
     32 N          26.6425  -48.7934  -58.3575 N.am      8 UNK        -0.4342 
     33 C          25.9518  -49.8390  -57.8765 C.2       8 UNK         0.5039 
     34 O          24.7970  -50.1012  -58.2136 O.2       8 UNK        -0.5547 
     35 CA         26.6350  -50.7207  -56.8100 C.3       7 UNK         0.0281 
     36 CB         27.1587  -52.0186  -57.4445 C.3       7 UNK        -0.1963 
     37 N          27.7318  -50.0603  -56.0935 N.am      7 UNK        -0.4444 
     38 C          27.6259  -48.9293  -55.3774 C.2       7 UNK         0.5104 
     39 O          26.5544  -48.3610  -55.1653 O.2       7 UNK        -0.5100 
     40 CA         28.9274  -48.2846  -54.8610 C.3       6 UNK         0.0396 
     41 CB         29.1032  -48.5900  -53.3675 C.3       6 UNK        -0.1801 
     42 N          30.1436  -48.6876  -55.5772 N.am      6 UNK        -0.4747 
     43 C          30.3560  -48.5968  -56.9018 C.2       6 UNK         0.5012 
     44 O          29.5364  -48.1249  -57.6908 O.2       6 UNK        -0.5003 
     45 CA         31.6593  -49.2116  -57.4593 C.3       5 UNK         0.0782 
     46 C46        32.7215  -48.1346  -57.7998 C.3       11 UNK        -0.0868 
     47 S47        33.4740  -47.3089  -56.3488 S.3       11 UNK        -0.2515 
     48 C48        33.4635  -45.5517  -56.8457 C.3       11 UNK         0.0199 
     49 N          32.2028  -50.2839  -56.6170 N.am      5 UNK        -0.4607 
     50 C          31.5543  -51.4085  -56.2793 C.2       4 UNK         0.5031 
     51 O          30.4478  -51.7113  -56.7277 O.2       4 UNK        -0.5119 
     52 CA         32.2129  -52.3338  -55.2376 C.3       4 UNK         0.0263 
     53 CB         32.7681  -53.5937  -55.9216 C.3       4 UNK        -0.1967 
     54 N          33.2746  -51.7234  -54.4252 N.am      4 UNK        -0.4237 
     55 C          33.1533  -50.6428  -53.6397 C.2       3 UNK         0.4908 
     56 O          32.1225  -49.9707  -53.5542 O.2       3 UNK        -0.5102 
     57 CA         34.4227  -50.2416  -52.8663 C.3       3 UNK         0.0241 
     58 CB         35.5200  -49.7566  -53.8304 C.3       3 UNK        -0.1971 
     59 N          34.1686  -49.1970  -51.8709 N.am      3 UNK        -0.4139 
     60 C          33.5471  -49.3966  -50.6978 C.2       2 UNK         0.5016 
     61 O          33.1628  -50.5029  -50.3135 O.2       2 UNK        -0.5319 
     62 CA         33.3401  -48.1810  -49.7702 C.3       2 UNK         0.0286 
     63 CB         34.2827  -48.2621  -48.5575 C.3       2 UNK        -0.1963 
     64 N          33.5498  -46.8973  -50.4423 N.am      2 UNK        -0.4790 
     65 C          32.6620  -46.3036  -51.2523 C.2       1 UNK         0.5024 
     66 O          31.5105  -46.7110  -51.3976 O.2       1 UNK        -0.4888 
     67 H67        37.5750  -45.7672  -51.8032 H         1 UNK         0.0892 
     68 H68        37.4018  -44.9600  -53.3639 H         1 UNK         0.0892 
     69 H69        37.0276  -44.0900  -51.8746 H         1 UNK         0.0892 
     70 H70        34.8184  -43.9042  -51.5368 H         1 UNK         0.3107 
     71 H71        32.9087  -45.2855  -53.0826 H         1 UNK         0.0773 
     72 H72        32.3917  -43.6059  -50.5776 H         1 UNK         0.0680 
     73 H73        31.2234  -43.9981  -51.8128 H         1 UNK         0.0680 
     74 H74        31.5194  -41.1255  -54.2268 H         1 UNK         0.0650 
     75 H75        30.4667  -42.0121  -53.1521 H         1 UNK         0.0650 
     76 H76        33.3761  -43.5959  -54.9485 H         1 UNK         0.1397 
     77 H77        30.8508  -45.8201  -57.5964 H         1 UNK         0.1363 
     78 H78        29.1274  -42.9761  -54.9067 H         1 UNK         0.1355 
     79 H79        27.7260  -44.6663  -56.0443 H         1 UNK         0.0707 
     80 H80        28.4413  -45.8677  -57.0550 H         1 UNK         0.0707 
     81 H81        27.7616  -41.6753  -57.4766 H         1 UNK         0.1034 
     82 H82        26.5920  -42.0521  -58.7071 H         1 UNK         0.1034 
     83 H83        26.5343  -42.7928  -55.7663 H         1 UNK         0.0482 
     84 H84        23.3676  -42.4421  -56.9756 H         1 UNK         0.3460 
     85 H85        23.1912  -40.7489  -56.5803 H         1 UNK         0.3460 
     86 H86        25.2919  -44.3700  -57.8529 H         1 UNK         0.2989 
     87 H87        24.1307  -46.6417  -55.3712 H         1 UNK         0.0559 
     88 H88        22.5999  -45.4153  -57.7217 H         1 UNK         0.0848 
     89 H89        22.0480  -45.5245  -56.0599 H         1 UNK         0.0848 
     90 H90        22.2842  -46.9910  -56.9964 H         1 UNK         0.0848 
     91 H91        25.4965  -47.6145  -56.7354 H         1 UNK         0.3144 
     92 H92        25.4431  -48.2447  -59.9716 H         1 UNK         0.0727 
     93 H93        26.8903  -46.3296  -60.6932 H         1 UNK         0.0790 
     94 H94        27.9811  -46.6529  -59.3541 H         1 UNK         0.0790 
     95 H95        27.7768  -47.8431  -60.6325 H         1 UNK         0.0790 
     96 H96        27.5983  -48.6523  -58.0416 H         1 UNK         0.3215 
     97 H97        25.8736  -50.9810  -56.0717 H         1 UNK         0.0863 
     98 H98        27.9412  -51.8203  -58.1782 H         1 UNK         0.0808 
     99 H99        26.3587  -52.5555  -57.9564 H         1 UNK         0.0808 
    100 H100       27.5698  -52.6918  -56.6919 H         1 UNK         0.0808 
    101 H101       28.6552  -50.4588  -56.2205 H         1 UNK         0.3118 
    102 H102       28.8269  -47.2045  -54.9791 H         1 UNK         0.0546 
    103 H103       28.2425  -48.2486  -52.7908 H         1 UNK         0.0828 
    104 H104       29.9821  -48.0886  -52.9654 H         1 UNK         0.0828 
    105 H105       29.2197  -49.6591  -53.1854 H         1 UNK         0.0828 
    106 H106       30.8781  -49.0963  -55.0065 H         1 UNK         0.3005 
    107 H107       31.3724  -49.6850  -58.4013 H         1 UNK         0.1257 
    108 H108       32.2962  -47.3927  -58.4771 H         1 UNK         0.0775 
    109 H109       33.5325  -48.5987  -58.3630 H         1 UNK         0.0775 
    110 H110       34.3783  -45.0918  -56.4686 H         1 UNK         0.0840 
    111 H111       33.5106  -45.4594  -57.9315 H         1 UNK         0.0840 
    112 H112       33.0935  -50.0934  -56.1822 H         1 UNK         0.2987 
    113 H113       31.4219  -52.6401  -54.5500 H         1 UNK         0.0785 
    114 H114       33.5891  -53.3560  -56.5993 H         1 UNK         0.0798 
    115 H115       31.9958  -54.0932  -56.5089 H         1 UNK         0.0798 
    116 H116       33.1316  -54.3167  -55.1911 H         1 UNK         0.0798 
    117 H117       34.1666  -52.1970  -54.4434 H         1 UNK         0.3079 
    118 H118       34.7904  -51.1266  -52.3425 H         1 UNK         0.0794 
    119 H119       35.1824  -48.9104  -54.4293 H         1 UNK         0.0786 
    120 H120       35.8252  -50.5431  -54.5211 H         1 UNK         0.0786 
    121 H121       36.4126  -49.4427  -53.2888 H         1 UNK         0.0786 
    122 H122       34.4347  -48.2535  -52.1370 H         1 UNK         0.3032 
    123 H123       32.3103  -48.2251  -49.4075 H         1 UNK         0.1094 
    124 H124       34.1047  -47.4429  -47.8606 H         1 UNK         0.0794 
    125 H125       34.1314  -49.1915  -48.0065 H         1 UNK         0.0794 
    126 H126       35.3309  -48.2284  -48.8572 H         1 UNK         0.0794 
    127 H127       34.4730  -46.4933  -50.3782 H         1 UNK         0.3016 
@<TRIPOS>BOND
     1    1    2 1    
     2    1   67 1    
     3    1   68 1    
     4    1   69 1    
     5    2    3 2    
     6    2    4 am   BACKBONE|DICT|INTERRES
     7    4    5 1    
     8    4   70 1    
     9    5    6 1    
    10    5   65 1    
    11    5   71 1    
    12    6    7 1    
    13    6   72 1    
    14    6   73 1    
    15    7    8 1    
    16    8    9 1    
    17    8   74 1    
    18    8   75 1    
    19    9   10 ar   
    20    9   14 ar   
    21   10   11 ar   
    22   10   76 1    
    23   11   12 ar   
    24   11   48 1    
    25   12   13 ar   
    26   12   77 1    
    27   13   14 ar   
    28   13   15 1    
    29   14   78 1    
    30   15   16 1    
    31   15   79 1    
    32   15   80 1    
    33   16   17 1    
    34   17   18 1    
    35   17   81 1    
    36   17   82 1    
    37   18   19 1    
    38   18   22 1    
    39   18   83 1    
    40   19   20 am   BACKBONE|DICT|INTERRES
    41   19   21 2    
    42   20   84 1    
    43   20   85 1    
    44   22   23 am   BACKBONE|DICT|INTERRES
    45   22   86 1    
    46   23   24 2    
    47   23   25 1    
    48   25   26 1    
    49   25   27 1    
    50   25   87 1    
    51   26   88 1    
    52   26   89 1    
    53   26   90 1    
    54   27   28 am   BACKBONE|DICT|INTERRES
    55   27   91 1    
    56   28   29 2    
    57   28   30 1    
    58   30   31 1    
    59   30   32 1    
    60   30   92 1    
    61   31   93 1    
    62   31   94 1    
    63   31   95 1    
    64   32   33 am   BACKBONE|DICT|INTERRES
    65   32   96 1    
    66   33   34 2    
    67   33   35 1    
    68   35   36 1    
    69   35   37 1    
    70   35   97 1    
    71   36   98 1    
    72   36   99 1    
    73   36  100 1    
    74   37   38 am   BACKBONE|DICT|INTERRES
    75   37  101 1    
    76   38   39 2    
    77   38   40 1    
    78   40   41 1    
    79   40   42 1    
    80   40  102 1    
    81   41  103 1    
    82   41  104 1    
    83   41  105 1    
    84   42   43 am   BACKBONE|DICT|INTERRES
    85   42  106 1    
    86   43   44 2    
    87   43   45 1    
    88   45   46 1    
    89   45   49 1    
    90   45  107 1    
    91   46   47 1    
    92   46  108 1    
    93   46  109 1    
    94   47   48 1    
    95   48  110 1    
    96   48  111 1    
    97   49   50 am   BACKBONE|DICT|INTERRES
    98   49  112 1    
    99   50   51 2    
   100   50   52 1    
   101   52   53 1    
   102   52   54 1    
   103   52  113 1    
   104   53  114 1    
   105   53  115 1    
   106   53  116 1    
   107   54   55 am   BACKBONE|DICT|INTERRES
   108   54  117 1    
   109   55   56 2    
   110   55   57 1    
   111   57   58 1    
   112   57   59 1    
   113   57  118 1    
   114   58  119 1    
   115   58  120 1    
   116   58  121 1    
   117   59   60 am   BACKBONE|DICT|INTERRES
   118   59  122 1    
   119   60   61 2    
   120   60   62 1    
   121   62   63 1    
   122   62   64 1    
   123   62  123 1    
   124   63  124 1    
   125   63  125 1    
   126   63  126 1    
   127   64   65 am   BACKBONE|DICT|INTERRES
   128   64  127 1    
   129   65   66 2    
@<TRIPOS>SUBSTRUCTURE
     1 UNK         1 GROUP             0       ****    0 ROOT    
