@<TRIPOS>MOLECULE
3R134
127   129    1
SMALL
USER_CHARGES


@<TRIPOS>ATOM
      1 CA         30.2687  -44.9151  -52.4635 C.3       0 UNK        -0.1968 
      2 C          31.5442  -45.1608  -51.6850 C.2       0 UNK         0.4852 
      3 O          31.5244  -45.8421  -50.6590 O.2       0 UNK        -0.5359 
      4 N          32.6522  -44.5851  -52.1641 N.am      1 UNK        -0.4300 
      5 CA         33.9585  -44.6175  -51.4964 C.3       1 UNK         0.0863 
      6 C6         34.8568  -43.4209  -51.8995 C.3       11 UNK        -0.0953 
      7 S7         33.9871  -41.8162  -51.7475 S.3       11 UNK        -0.2369 
      8 C8         33.9774  -41.1769  -53.4556 C.3       11 UNK         0.0226 
      9 C9         33.1467  -42.0224  -54.4149 C.ar      11 UNK        -0.0699 
     10 C10        33.7653  -43.0301  -55.1588 C.ar      11 UNK        -0.0804 
     11 C11        33.0364  -43.7962  -56.0687 C.ar      11 UNK        -0.0871 
     12 C12        31.6785  -43.5273  -56.2598 C.ar      11 UNK        -0.1008 
     13 C13        31.0458  -42.5124  -55.5376 C.ar      11 UNK        -0.0735 
     14 C14        31.7816  -41.7701  -54.6041 C.ar      11 UNK        -0.0945 
     15 C15        29.5761  -42.2116  -55.8016 C.3       11 UNK         0.0169 
     16 S16        28.4955  -43.3349  -54.8674 S.3       11 UNK        -0.2669 
     17 C17        27.2770  -43.8569  -56.1215 C.3       11 UNK        -0.0850 
     18 CA         26.1497  -44.7354  -55.4997 C.3       10 UNK         0.0855 
     19 C          25.0311  -43.9195  -54.7751 C.2       10 UNK         0.5543 
     20 N          23.8367  -44.4734  -54.5983 N.am      10 UNK        -0.7343 
     21 O          25.2355  -42.7831  -54.3556 O.2       10 UNK        -0.5027 
     22 N          25.6321  -45.7551  -56.4307 N.am      10 UNK        -0.4495 
     23 C          24.9605  -45.4960  -57.5614 C.2       10 UNK         0.4903 
     24 O          24.8286  -44.3642  -58.0314 O.2       10 UNK        -0.4860 
     25 CA         24.2723  -46.6931  -58.2477 C.3       9 UNK         0.0227 
     26 CB         23.6277  -46.3237  -59.6018 C.3       9 UNK        -0.1964 
     27 N          25.1242  -47.8780  -58.3868 N.am      9 UNK        -0.4231 
     28 C          26.2556  -48.0054  -59.0931 C.2       9 UNK         0.5014 
     29 O          26.7971  -47.0805  -59.7017 O.2       9 UNK        -0.5270 
     30 CA         26.8534  -49.4290  -59.1546 C.3       8 UNK         0.0284 
     31 CB         28.1098  -49.5097  -60.0405 C.3       8 UNK        -0.1977 
     32 N          27.1570  -49.9765  -57.8279 N.am      8 UNK        -0.4342 
     33 C          26.2477  -50.4292  -56.9534 C.2       8 UNK         0.5039 
     34 O          25.0383  -50.4647  -57.1886 O.2       8 UNK        -0.5547 
     35 CA         26.7570  -50.8625  -55.5701 C.3       7 UNK         0.0281 
     36 CB         27.3389  -52.2841  -55.6192 C.3       7 UNK        -0.1963 
     37 N          27.7468  -49.9356  -55.0171 N.am      7 UNK        -0.4444 
     38 C          27.4975  -48.6565  -54.6944 C.2       7 UNK         0.5104 
     39 O          26.3923  -48.1213  -54.7964 O.2       7 UNK        -0.5100 
     40 CA         28.6989  -47.8275  -54.2077 C.3       6 UNK         0.0396 
     41 CB         29.0823  -48.2312  -52.7742 C.3       6 UNK        -0.1801 
     42 N          29.8500  -47.9697  -55.1038 N.am      6 UNK        -0.4747 
     43 C          29.8560  -47.5740  -56.3879 C.2       6 UNK         0.5012 
     44 O          28.9572  -46.9050  -56.8951 O.2       6 UNK        -0.5003 
     45 CA         31.0053  -48.0639  -57.2907 C.3       5 UNK         0.0782 
     46 C46        32.0351  -46.9687  -57.6420 C.3       11 UNK        -0.0868 
     47 S47        33.1882  -46.5415  -56.2994 S.3       11 UNK        -0.2515 
     48 C48        33.7313  -44.8976  -56.8519 C.3       11 UNK         0.0199 
     49 N          31.6211  -49.2996  -56.8031 N.am      5 UNK        -0.4607 
     50 C          31.0662  -50.5078  -56.9579 C.2       4 UNK         0.5031 
     51 O          29.9846  -50.6945  -57.5156 O.2       4 UNK        -0.5119 
     52 CA         31.8310  -51.7008  -56.3660 C.3       4 UNK         0.0263 
     53 CB         33.0647  -52.0395  -57.2186 C.3       4 UNK        -0.1967 
     54 N          32.2339  -51.4786  -54.9759 N.am      4 UNK        -0.4237 
     55 C          31.3756  -51.3287  -53.9576 C.2       3 UNK         0.4908 
     56 O          30.1512  -51.3566  -54.0833 O.2       3 UNK        -0.5102 
     57 CA         31.9801  -51.0912  -52.5633 C.3       3 UNK         0.0241 
     58 CB         32.2729  -52.4323  -51.8715 C.3       3 UNK        -0.1971 
     59 N          33.1885  -50.2571  -52.5484 N.am      3 UNK        -0.4139 
     60 C          33.2489  -48.9936  -52.9897 C.2       2 UNK         0.5016 
     61 O          32.3269  -48.4298  -53.5849 O.2       2 UNK        -0.5319 
     62 CA         34.5515  -48.2291  -52.7211 C.3       2 UNK         0.0286 
     63 CB         35.5643  -48.4240  -53.8612 C.3       2 UNK        -0.1963 
     64 N          34.2070  -46.8166  -52.5928 N.am      2 UNK        -0.4790 
     65 C          34.6820  -45.9734  -51.6669 C.2       1 UNK         0.5024 
     66 O          35.6343  -46.2418  -50.9328 O.2       1 UNK        -0.4888 
     67 H67        30.0737  -43.8448  -52.5183 H         1 UNK         0.0892 
     68 H68        30.3583  -45.3082  -53.4766 H         1 UNK         0.0892 
     69 H69        29.4134  -45.3869  -51.9813 H         1 UNK         0.0892 
     70 H70        32.6041  -44.0238  -53.0045 H         1 UNK         0.3107 
     71 H71        33.7719  -44.5165  -50.4247 H         1 UNK         0.0773 
     72 H72        35.2512  -43.5473  -52.9057 H         1 UNK         0.0680 
     73 H73        35.7317  -43.3807  -51.2481 H         1 UNK         0.0680 
     74 H74        35.0056  -41.0989  -53.8125 H         1 UNK         0.0650 
     75 H75        33.5884  -40.1578  -53.4404 H         1 UNK         0.0650 
     76 H76        34.8239  -43.2135  -55.0407 H         1 UNK         0.1397 
     77 H77        31.1071  -44.1046  -56.9722 H         1 UNK         0.1363 
     78 H78        31.2984  -40.9818  -54.0429 H         1 UNK         0.1355 
     79 H79        29.3404  -41.1819  -55.5289 H         1 UNK         0.0707 
     80 H80        29.3735  -42.2984  -56.8702 H         1 UNK         0.0707 
     81 H81        26.8632  -42.9851  -56.6313 H         1 UNK         0.1034 
     82 H82        27.8180  -44.4243  -56.8806 H         1 UNK         0.1034 
     83 H83        26.6029  -45.3259  -54.7040 H         1 UNK         0.0482 
     84 H84        23.6543  -45.4105  -54.9194 H         1 UNK         0.3460 
     85 H85        23.1149  -43.9501  -54.1283 H         1 UNK         0.3460 
     86 H86        25.7213  -46.7131  -56.1069 H         1 UNK         0.2989 
     87 H87        23.4632  -46.9903  -57.5791 H         1 UNK         0.0559 
     88 H88        24.3688  -45.9741  -60.3213 H         1 UNK         0.0848 
     89 H89        22.8925  -45.5270  -59.4811 H         1 UNK         0.0848 
     90 H90        23.1090  -47.1756  -60.0413 H         1 UNK         0.0848 
     91 H91        24.8072  -48.7165  -57.9030 H         1 UNK         0.3144 
     92 H92        26.0967  -50.0673  -59.6159 H         1 UNK         0.0727 
     93 H93        28.5143  -50.5218  -60.0700 H         1 UNK         0.0790 
     94 H94        28.8946  -48.8436  -59.6870 H         1 UNK         0.0790 
     95 H95        27.8802  -49.2221  -61.0672 H         1 UNK         0.0790 
     96 H96        28.1394  -50.0270  -57.5706 H         1 UNK         0.3215 
     97 H97        25.9003  -50.8710  -54.8929 H         1 UNK         0.0863 
     98 H98        27.6184  -52.6312  -54.6243 H         1 UNK         0.0808 
     99 H99        28.2260  -52.3385  -56.2510 H         1 UNK         0.0808 
    100 H100       26.6098  -52.9914  -56.0167 H         1 UNK         0.0808 
    101 H101       28.6798  -50.3076  -54.8584 H         1 UNK         0.3118 
    102 H102       28.4137  -46.7743  -54.2018 H         1 UNK         0.0546 
    103 H103       28.2885  -47.9678  -52.0745 H         1 UNK         0.0828 
    104 H104       29.9900  -47.7316  -52.4401 H         1 UNK         0.0828 
    105 H105       29.2490  -49.3033  -52.6809 H         1 UNK         0.0828 
    106 H106       30.6740  -48.4309  -54.7286 H         1 UNK         0.3005 
    107 H107       30.5229  -48.3073  -58.2382 H         1 UNK         0.1257 
    108 H108       31.5205  -46.0736  -57.9931 H         1 UNK         0.0775 
    109 H109       32.6375  -47.3047  -58.4875 H         1 UNK         0.0775 
    110 H110       34.8131  -44.8362  -56.7237 H         1 UNK         0.0840 
    111 H111       33.5505  -44.7657  -57.9196 H         1 UNK         0.0840 
    112 H112       32.4840  -49.1994  -56.2878 H         1 UNK         0.2987 
    113 H113       31.1594  -52.5620  -56.3843 H         1 UNK         0.0785 
    114 H114       32.7831  -52.2141  -58.2581 H         1 UNK         0.0798 
    115 H115       33.5557  -52.9452  -56.8622 H         1 UNK         0.0798 
    116 H116       33.8000  -51.2340  -57.2111 H         1 UNK         0.0798 
    117 H117       33.2233  -51.4346  -54.7815 H         1 UNK         0.3079 
    118 H118       31.2250  -50.5682  -51.9733 H         1 UNK         0.0794 
    119 H119       33.0566  -52.9908  -52.3850 H         1 UNK         0.0786 
    120 H120       31.3830  -53.0634  -51.8511 H         1 UNK         0.0786 
    121 H121       32.5859  -52.2864  -50.8374 H         1 UNK         0.0786 
    122 H122       33.9975  -50.6491  -52.0878 H         1 UNK         0.3032 
    123 H123       34.9811  -48.5933  -51.7849 H         1 UNK         0.1094 
    124 H124       36.4756  -47.8538  -53.6804 H         1 UNK         0.0794 
    125 H125       35.8508  -49.4719  -53.9557 H         1 UNK         0.0794 
    126 H126       35.1597  -48.1087  -54.8224 H         1 UNK         0.0794 
    127 H127       33.3850  -46.5490  -53.1215 H         1 UNK         0.3016 
@<TRIPOS>BOND
     1    1    2 1    
     2    1   67 1    
     3    1   68 1    
     4    1   69 1    
     5    2    3 2    
     6    2    4 am   BACKBONE|DICT|INTERRES
     7    4    5 1    
     8    4   70 1    
     9    5    6 1    
    10    5   65 1    
    11    5   71 1    
    12    6    7 1    
    13    6   72 1    
    14    6   73 1    
    15    7    8 1    
    16    8    9 1    
    17    8   74 1    
    18    8   75 1    
    19    9   10 ar   
    20    9   14 ar   
    21   10   11 ar   
    22   10   76 1    
    23   11   12 ar   
    24   11   48 1    
    25   12   13 ar   
    26   12   77 1    
    27   13   14 ar   
    28   13   15 1    
    29   14   78 1    
    30   15   16 1    
    31   15   79 1    
    32   15   80 1    
    33   16   17 1    
    34   17   18 1    
    35   17   81 1    
    36   17   82 1    
    37   18   19 1    
    38   18   22 1    
    39   18   83 1    
    40   19   20 am   BACKBONE|DICT|INTERRES
    41   19   21 2    
    42   20   84 1    
    43   20   85 1    
    44   22   23 am   BACKBONE|DICT|INTERRES
    45   22   86 1    
    46   23   24 2    
    47   23   25 1    
    48   25   26 1    
    49   25   27 1    
    50   25   87 1    
    51   26   88 1    
    52   26   89 1    
    53   26   90 1    
    54   27   28 am   BACKBONE|DICT|INTERRES
    55   27   91 1    
    56   28   29 2    
    57   28   30 1    
    58   30   31 1    
    59   30   32 1    
    60   30   92 1    
    61   31   93 1    
    62   31   94 1    
    63   31   95 1    
    64   32   33 am   BACKBONE|DICT|INTERRES
    65   32   96 1    
    66   33   34 2    
    67   33   35 1    
    68   35   36 1    
    69   35   37 1    
    70   35   97 1    
    71   36   98 1    
    72   36   99 1    
    73   36  100 1    
    74   37   38 am   BACKBONE|DICT|INTERRES
    75   37  101 1    
    76   38   39 2    
    77   38   40 1    
    78   40   41 1    
    79   40   42 1    
    80   40  102 1    
    81   41  103 1    
    82   41  104 1    
    83   41  105 1    
    84   42   43 am   BACKBONE|DICT|INTERRES
    85   42  106 1    
    86   43   44 2    
    87   43   45 1    
    88   45   46 1    
    89   45   49 1    
    90   45  107 1    
    91   46   47 1    
    92   46  108 1    
    93   46  109 1    
    94   47   48 1    
    95   48  110 1    
    96   48  111 1    
    97   49   50 am   BACKBONE|DICT|INTERRES
    98   49  112 1    
    99   50   51 2    
   100   50   52 1    
   101   52   53 1    
   102   52   54 1    
   103   52  113 1    
   104   53  114 1    
   105   53  115 1    
   106   53  116 1    
   107   54   55 am   BACKBONE|DICT|INTERRES
   108   54  117 1    
   109   55   56 2    
   110   55   57 1    
   111   57   58 1    
   112   57   59 1    
   113   57  118 1    
   114   58  119 1    
   115   58  120 1    
   116   58  121 1    
   117   59   60 am   BACKBONE|DICT|INTERRES
   118   59  122 1    
   119   60   61 2    
   120   60   62 1    
   121   62   63 1    
   122   62   64 1    
   123   62  123 1    
   124   63  124 1    
   125   63  125 1    
   126   63  126 1    
   127   64   65 am   BACKBONE|DICT|INTERRES
   128   64  127 1    
   129   65   66 2    
@<TRIPOS>SUBSTRUCTURE
     1 UNK         1 GROUP             0       ****    0 ROOT    
