@<TRIPOS>MOLECULE
3R134
127   129    1
SMALL
USER_CHARGES


@<TRIPOS>ATOM
      1 CA         33.3256  -47.7063  -57.3668 C.3       0 UNK        -0.1968 
      2 C          33.9678  -46.9681  -56.2018 C.2       0 UNK         0.4852 
      3 O          35.1917  -46.9949  -56.0620 O.2       0 UNK        -0.5359 
      4 N          33.1416  -46.3347  -55.3586 N.am      1 UNK        -0.4300 
      5 CA         33.4940  -45.5529  -54.1679 C.3       1 UNK         0.0863 
      6 C6         34.1712  -44.1926  -54.4924 C.3       11 UNK        -0.0953 
      7 S7         33.1206  -43.0902  -55.4934 S.3       11 UNK        -0.2369 
      8 C8         32.2994  -42.0903  -54.2111 C.3       11 UNK         0.0226 
      9 C9         31.0749  -42.8003  -53.6544 C.ar      11 UNK        -0.0699 
     10 C10        31.1118  -43.4313  -52.4067 C.ar      11 UNK        -0.0804 
     11 C11        29.9828  -44.0966  -51.9152 C.ar      11 UNK        -0.0871 
     12 C12        28.8078  -44.1108  -52.6731 C.ar      11 UNK        -0.1008 
     13 C13        28.7628  -43.4854  -53.9221 C.ar      11 UNK        -0.0735 
     14 C14        29.8960  -42.8255  -54.4028 C.ar      11 UNK        -0.0945 
     15 C15        27.4990  -43.5373  -54.7676 C.3       11 UNK         0.0169 
     16 S16        27.1177  -45.2236  -55.3400 S.3       11 UNK        -0.2669 
     17 C17        28.6344  -45.6962  -56.2479 C.3       11 UNK        -0.0850 
     18 CA         28.5707  -45.3923  -57.7666 C.3       10 UNK         0.0855 
     19 C          29.9487  -45.6922  -58.4223 C.2       10 UNK         0.5543 
     20 N          30.8828  -44.7538  -58.3497 N.am      10 UNK        -0.7343 
     21 O          30.1951  -46.7765  -58.9463 O.2       10 UNK        -0.5027 
     22 N          27.4526  -46.1022  -58.4057 N.am      10 UNK        -0.4495 
     23 C          27.0925  -46.0038  -59.6920 C.2       10 UNK         0.4903 
     24 O          27.6098  -45.2312  -60.4999 O.2       10 UNK        -0.4860 
     25 CA         25.9361  -46.9078  -60.1501 C.3       9 UNK         0.0227 
     26 CB         26.3961  -48.3688  -60.2892 C.3       9 UNK        -0.1964 
     27 N          24.7896  -46.8296  -59.2432 N.am      9 UNK        -0.4231 
     28 C          23.9525  -45.7870  -59.1625 C.2       9 UNK         0.5014 
     29 O          24.0185  -44.8046  -59.9030 O.2       9 UNK        -0.5270 
     30 CA         22.8618  -45.8147  -58.0741 C.3       8 UNK         0.0284 
     31 CB         21.5576  -46.4457  -58.6019 C.3       8 UNK        -0.1977 
     32 N          23.2876  -46.4099  -56.7987 N.am      8 UNK        -0.4342 
     33 C          23.5753  -47.6883  -56.5224 C.2       8 UNK         0.5039 
     34 O          23.4614  -48.6166  -57.3265 O.2       8 UNK        -0.5547 
     35 CA         24.1003  -47.9612  -55.1022 C.3       7 UNK         0.0281 
     36 CB         22.9580  -48.4530  -54.1985 C.3       7 UNK        -0.1963 
     37 N          25.2107  -48.9183  -55.0349 N.am      7 UNK        -0.4444 
     38 C          26.3162  -48.9226  -55.7931 C.2       7 UNK         0.5104 
     39 O          26.5159  -48.1741  -56.7501 O.2       7 UNK        -0.5100 
     40 CA         27.4230  -49.9011  -55.3713 C.3       6 UNK         0.0396 
     41 CB         28.0851  -50.5632  -56.5924 C.3       6 UNK        -0.1801 
     42 N          28.4528  -49.2129  -54.5919 N.am      6 UNK        -0.4747 
     43 C          28.3028  -48.6992  -53.3620 C.2       6 UNK         0.5012 
     44 O          27.2602  -48.7916  -52.7114 O.2       6 UNK        -0.5003 
     45 CA         29.5529  -48.0370  -52.7375 C.3       5 UNK         0.0782 
     46 C46        29.2627  -47.4164  -51.3455 C.3       11 UNK        -0.0868 
     47 S47        30.6863  -46.4850  -50.6812 S.3       11 UNK        -0.2515 
     48 C48        30.0319  -44.7884  -50.5606 C.3       11 UNK         0.0199 
     49 N          30.6384  -49.0246  -52.6794 N.am      5 UNK        -0.4607 
     50 C          31.4579  -49.3167  -53.6937 C.2       4 UNK         0.5031 
     51 O          31.4294  -48.7335  -54.7795 O.2       4 UNK        -0.5119 
     52 CA         32.3957  -50.5120  -53.5071 C.3       4 UNK         0.0263 
     53 CB         31.8263  -51.7300  -54.2652 C.3       4 UNK        -0.1967 
     54 N          33.7238  -50.1486  -53.9968 N.am      4 UNK        -0.4237 
     55 C          34.8354  -50.8900  -53.8929 C.2       3 UNK         0.4908 
     56 O          34.8698  -52.0180  -53.3998 O.2       3 UNK        -0.5102 
     57 CA         36.1431  -50.2557  -54.3966 C.3       3 UNK         0.0241 
     58 CB         36.2508  -50.3372  -55.9274 C.3       3 UNK        -0.1971 
     59 N          36.2818  -48.8668  -53.9522 N.am      3 UNK        -0.4139 
     60 C          36.5957  -48.5200  -52.6934 C.2       2 UNK         0.5016 
     61 O          36.8968  -49.3303  -51.8158 O.2       2 UNK        -0.5319 
     62 CA         36.5616  -47.0226  -52.3370 C.3       2 UNK         0.0286 
     63 CB         37.9661  -46.4083  -52.4502 C.3       2 UNK        -0.1963 
     64 N          35.6293  -46.2461  -53.1567 N.am      2 UNK        -0.4790 
     65 C          34.2975  -46.4022  -53.1628 C.2       1 UNK         0.5024 
     66 O          33.7053  -47.1987  -52.4365 O.2       1 UNK        -0.4888 
     67 H67        33.5697  -48.7666  -57.3295 H         1 UNK         0.0892 
     68 H68        32.2397  -47.6185  -57.3509 H         1 UNK         0.0892 
     69 H69        33.6854  -47.3034  -58.3129 H         1 UNK         0.0892 
     70 H70        32.1484  -46.4450  -55.5043 H         1 UNK         0.3107 
     71 H71        32.5463  -45.3445  -53.6728 H         1 UNK         0.0773 
     72 H72        34.4512  -43.6717  -53.5750 H         1 UNK         0.0680 
     73 H73        35.0966  -44.3449  -55.0502 H         1 UNK         0.0680 
     74 H74        31.9919  -41.1422  -54.6547 H         1 UNK         0.0650 
     75 H75        33.0031  -41.8368  -53.4170 H         1 UNK         0.0650 
     76 H76        32.0224  -43.4172  -51.8233 H         1 UNK         0.1397 
     77 H77        27.9285  -44.6196  -52.3028 H         1 UNK         0.1363 
     78 H78        29.8697  -42.3429  -55.3702 H         1 UNK         0.1355 
     79 H79        27.5817  -42.8812  -55.6355 H         1 UNK         0.0707 
     80 H80        26.6587  -43.1648  -54.1803 H         1 UNK         0.0707 
     81 H81        28.7917  -46.7649  -56.0948 H         1 UNK         0.1034 
     82 H82        29.4992  -45.2133  -55.7930 H         1 UNK         0.1034 
     83 H83        28.3741  -44.3259  -57.8923 H         1 UNK         0.0482 
     84 H84        30.7005  -43.8637  -57.9144 H         1 UNK         0.3460 
     85 H85        31.7846  -44.9304  -58.7619 H         1 UNK         0.3460 
     86 H86        26.9914  -46.7976  -57.8210 H         1 UNK         0.2989 
     87 H87        25.6145  -46.5664  -61.1364 H         1 UNK         0.0559 
     88 H88        27.2431  -48.4458  -60.9723 H         1 UNK         0.0848 
     89 H89        25.6003  -48.9985  -60.6871 H         1 UNK         0.0848 
     90 H90        26.7107  -48.7917  -59.3348 H         1 UNK         0.0848 
     91 H91        24.6483  -47.5988  -58.5941 H         1 UNK         0.3144 
     92 H92        22.6402  -44.7720  -57.8403 H         1 UNK         0.0727 
     93 H93        20.7704  -46.4193  -57.8485 H         1 UNK         0.0790 
     94 H94        21.6970  -47.4832  -58.9066 H         1 UNK         0.0790 
     95 H95        21.1908  -45.9023  -59.4736 H         1 UNK         0.0790 
     96 H96        23.4474  -45.7353  -56.0624 H         1 UNK         0.3215 
     97 H97        24.4830  -47.0242  -54.6922 H         1 UNK         0.0863 
     98 H98        23.2847  -48.5581  -53.1637 H         1 UNK         0.0808 
     99 H99        22.5721  -49.4179  -54.5304 H         1 UNK         0.0808 
    100 H100       22.1235  -47.7502  -54.2024 H         1 UNK         0.0808 
    101 H101       25.1869  -49.5608  -54.2564 H         1 UNK         0.3118 
    102 H102       26.9865  -50.6885  -54.7534 H         1 UNK         0.0546 
    103 H103       27.3434  -51.0738  -57.2078 H         1 UNK         0.0828 
    104 H104       28.8233  -51.3060  -56.2898 H         1 UNK         0.0828 
    105 H105       28.5872  -49.8324  -57.2284 H         1 UNK         0.0828 
    106 H106       29.3575  -49.1016  -55.0357 H         1 UNK         0.3005 
    107 H107       29.8416  -47.2199  -53.4037 H         1 UNK         0.1257 
    108 H108       29.0025  -48.1951  -50.6262 H         1 UNK         0.0775 
    109 H109       28.3957  -46.7563  -51.3944 H         1 UNK         0.0775 
    110 H110       29.0443  -44.8031  -50.0968 H         1 UNK         0.0840 
    111 H111       30.6699  -44.2175  -49.8843 H         1 UNK         0.0840 
    112 H112       30.7021  -49.5584  -51.8250 H         1 UNK         0.2987 
    113 H113       32.4737  -50.7464  -52.4435 H         1 UNK         0.0785 
    114 H114       32.4025  -52.6349  -54.0748 H         1 UNK         0.0798 
    115 H115       31.8147  -51.5610  -55.3428 H         1 UNK         0.0798 
    116 H116       30.8004  -51.9378  -53.9577 H         1 UNK         0.0798 
    117 H117       33.7828  -49.2191  -54.3896 H         1 UNK         0.3079 
    118 H118       36.9716  -50.8325  -53.9791 H         1 UNK         0.0794 
    119 H119       35.4615  -49.7745  -56.4226 H         1 UNK         0.0786 
    120 H120       37.2070  -49.9481  -56.2775 H         1 UNK         0.0786 
    121 H121       36.1770  -51.3709  -56.2681 H         1 UNK         0.0786 
    122 H122       36.0466  -48.1370  -54.6194 H         1 UNK         0.3032 
    123 H123       36.2346  -46.9467  -51.2974 H         1 UNK         0.1094 
    124 H124       38.3386  -46.4374  -53.4750 H         1 UNK         0.0794 
    125 H125       37.9739  -45.3700  -52.1179 H         1 UNK         0.0794 
    126 H126       38.6801  -46.9506  -51.8285 H         1 UNK         0.0794 
    127 H127       36.0369  -45.6081  -53.8255 H         1 UNK         0.3016 
@<TRIPOS>BOND
     1    1    2 1    
     2    1   67 1    
     3    1   68 1    
     4    1   69 1    
     5    2    3 2    
     6    2    4 am   BACKBONE|DICT|INTERRES
     7    4    5 1    
     8    4   70 1    
     9    5    6 1    
    10    5   65 1    
    11    5   71 1    
    12    6    7 1    
    13    6   72 1    
    14    6   73 1    
    15    7    8 1    
    16    8    9 1    
    17    8   74 1    
    18    8   75 1    
    19    9   10 ar   
    20    9   14 ar   
    21   10   11 ar   
    22   10   76 1    
    23   11   12 ar   
    24   11   48 1    
    25   12   13 ar   
    26   12   77 1    
    27   13   14 ar   
    28   13   15 1    
    29   14   78 1    
    30   15   16 1    
    31   15   79 1    
    32   15   80 1    
    33   16   17 1    
    34   17   18 1    
    35   17   81 1    
    36   17   82 1    
    37   18   19 1    
    38   18   22 1    
    39   18   83 1    
    40   19   20 am   BACKBONE|DICT|INTERRES
    41   19   21 2    
    42   20   84 1    
    43   20   85 1    
    44   22   23 am   BACKBONE|DICT|INTERRES
    45   22   86 1    
    46   23   24 2    
    47   23   25 1    
    48   25   26 1    
    49   25   27 1    
    50   25   87 1    
    51   26   88 1    
    52   26   89 1    
    53   26   90 1    
    54   27   28 am   BACKBONE|DICT|INTERRES
    55   27   91 1    
    56   28   29 2    
    57   28   30 1    
    58   30   31 1    
    59   30   32 1    
    60   30   92 1    
    61   31   93 1    
    62   31   94 1    
    63   31   95 1    
    64   32   33 am   BACKBONE|DICT|INTERRES
    65   32   96 1    
    66   33   34 2    
    67   33   35 1    
    68   35   36 1    
    69   35   37 1    
    70   35   97 1    
    71   36   98 1    
    72   36   99 1    
    73   36  100 1    
    74   37   38 am   BACKBONE|DICT|INTERRES
    75   37  101 1    
    76   38   39 2    
    77   38   40 1    
    78   40   41 1    
    79   40   42 1    
    80   40  102 1    
    81   41  103 1    
    82   41  104 1    
    83   41  105 1    
    84   42   43 am   BACKBONE|DICT|INTERRES
    85   42  106 1    
    86   43   44 2    
    87   43   45 1    
    88   45   46 1    
    89   45   49 1    
    90   45  107 1    
    91   46   47 1    
    92   46  108 1    
    93   46  109 1    
    94   47   48 1    
    95   48  110 1    
    96   48  111 1    
    97   49   50 am   BACKBONE|DICT|INTERRES
    98   49  112 1    
    99   50   51 2    
   100   50   52 1    
   101   52   53 1    
   102   52   54 1    
   103   52  113 1    
   104   53  114 1    
   105   53  115 1    
   106   53  116 1    
   107   54   55 am   BACKBONE|DICT|INTERRES
   108   54  117 1    
   109   55   56 2    
   110   55   57 1    
   111   57   58 1    
   112   57   59 1    
   113   57  118 1    
   114   58  119 1    
   115   58  120 1    
   116   58  121 1    
   117   59   60 am   BACKBONE|DICT|INTERRES
   118   59  122 1    
   119   60   61 2    
   120   60   62 1    
   121   62   63 1    
   122   62   64 1    
   123   62  123 1    
   124   63  124 1    
   125   63  125 1    
   126   63  126 1    
   127   64   65 am   BACKBONE|DICT|INTERRES
   128   64  127 1    
   129   65   66 2    
@<TRIPOS>SUBSTRUCTURE
     1 UNK         1 GROUP             0       ****    0 ROOT    
