@<TRIPOS>MOLECULE
3R134
127   129    1
SMALL
USER_CHARGES


@<TRIPOS>ATOM
      1 CA         37.1793  -43.1780  -51.1823 C.3       0 UNK        -0.1968 
      2 C          35.9438  -43.8308  -51.7850 C.2       0 UNK         0.4852 
      3 O          35.6114  -43.5547  -52.9389 O.2       0 UNK        -0.5359 
      4 N          35.2689  -44.6898  -51.0130 N.am      1 UNK        -0.4300 
      5 CA         34.0883  -45.4502  -51.4277 C.3       1 UNK         0.0863 
      6 C6         32.8641  -45.1858  -50.5117 C.3       11 UNK        -0.0953 
      7 S7         32.3925  -43.4219  -50.4191 S.3       11 UNK        -0.2369 
      8 C8         30.7050  -43.4040  -51.1274 C.3       11 UNK         0.0226 
      9 C9         30.5996  -43.3908  -52.6561 C.ar      11 UNK        -0.0699 
     10 C10        31.7173  -43.3851  -53.5018 C.ar      11 UNK        -0.0804 
     11 C11        31.5625  -43.3832  -54.8895 C.ar      11 UNK        -0.0871 
     12 C12        30.2797  -43.3324  -55.4339 C.ar      11 UNK        -0.1008 
     13 C13        29.1472  -43.3503  -54.6178 C.ar      11 UNK        -0.0735 
     14 C14        29.3213  -43.3792  -53.2290 C.ar      11 UNK        -0.0945 
     15 C15        27.7377  -43.4135  -55.2096 C.3       11 UNK         0.0169 
     16 S16        27.4664  -42.3559  -56.6755 S.3       11 UNK        -0.2669 
     17 C17        27.9870  -43.4203  -58.0735 C.3       11 UNK        -0.0850 
     18 CA         26.7973  -44.1352  -58.7629 C.3       10 UNK         0.0855 
     19 C          27.1850  -44.7026  -60.1622 C.2       10 UNK         0.5543 
     20 N          26.8780  -45.9512  -60.4964 N.am      10 UNK        -0.7343 
     21 O          27.7654  -43.9868  -60.9746 O.2       10 UNK        -0.5027 
     22 N          26.2097  -45.1420  -57.8687 N.am      10 UNK        -0.4495 
     23 C          24.9094  -45.4464  -57.8099 C.2       10 UNK         0.4903 
     24 O          24.0360  -44.8634  -58.4548 O.2       10 UNK        -0.4860 
     25 CA         24.5359  -46.6125  -56.8772 C.3       9 UNK         0.0227 
     26 CB         23.0857  -47.1026  -57.0744 C.3       9 UNK        -0.1964 
     27 N          25.4767  -47.7376  -56.9558 N.am      9 UNK        -0.4231 
     28 C          25.7777  -48.4778  -58.0371 C.2       9 UNK         0.5014 
     29 O          25.3379  -48.2400  -59.1629 O.2       9 UNK        -0.5270 
     30 CA         26.7397  -49.6746  -57.8641 C.3       8 UNK         0.0284 
     31 CB         28.0216  -49.4604  -58.6854 C.3       8 UNK        -0.1977 
     32 N          27.1132  -49.9472  -56.4755 N.am      8 UNK        -0.4342 
     33 C          26.3027  -50.4229  -55.5209 C.2       8 UNK         0.5039 
     34 O          25.1659  -50.8453  -55.7326 O.2       8 UNK        -0.5547 
     35 CA         26.8229  -50.3368  -54.0743 C.3       7 UNK         0.0281 
     36 CB         27.3200  -51.7020  -53.5702 C.3       7 UNK        -0.1963 
     37 N          27.8636  -49.3101  -53.9039 N.am      7 UNK        -0.4444 
     38 C          27.6224  -47.9916  -53.9657 C.2       7 UNK         0.5104 
     39 O          26.5111  -47.5146  -54.1945 O.2       7 UNK        -0.5100 
     40 CA         28.8141  -47.0494  -53.7641 C.3       6 UNK         0.0396 
     41 CB         29.3579  -47.1341  -52.3294 C.3       6 UNK        -0.1801 
     42 N          29.9009  -47.2845  -54.7121 N.am      6 UNK        -0.4747 
     43 C          29.9084  -46.9142  -56.0008 C.2       6 UNK         0.5012 
     44 O          28.9236  -46.4617  -56.5875 O.2       6 UNK        -0.5003 
     45 CA         31.2333  -47.1207  -56.7635 C.3       5 UNK         0.0782 
     46 C46        32.3981  -46.2369  -56.2273 C.3       11 UNK        -0.0868 
     47 S47        32.5920  -44.6750  -57.1487 S.3       11 UNK        -0.2515 
     48 C48        32.7811  -43.4516  -55.8024 C.3       11 UNK         0.0199 
     49 N          31.5990  -48.5326  -56.6999 N.am      5 UNK        -0.4607 
     50 C          31.6666  -49.3704  -57.7408 C.2       4 UNK         0.5031 
     51 O          31.4309  -49.0365  -58.9019 O.2       4 UNK        -0.5119 
     52 CA         32.0831  -50.8296  -57.4578 C.3       4 UNK         0.0263 
     53 CB         33.4750  -51.1139  -58.0472 C.3       4 UNK        -0.1967 
     54 N          32.0895  -51.1983  -56.0377 N.am      4 UNK        -0.4237 
     55 C          31.0023  -51.2642  -55.2583 C.2       3 UNK         0.4908 
     56 O          29.8629  -51.0289  -55.6574 O.2       3 UNK        -0.5102 
     57 CA         31.2336  -51.5623  -53.7652 C.3       3 UNK         0.0241 
     58 CB         31.2731  -53.0786  -53.5192 C.3       3 UNK        -0.1971 
     59 N          32.4359  -50.9345  -53.1960 N.am      3 UNK        -0.4139 
     60 C          32.7012  -49.6211  -53.2260 C.2       2 UNK         0.5016 
     61 O          31.9943  -48.7948  -53.8105 O.2       2 UNK        -0.5319 
     62 CA         33.9712  -49.1387  -52.5186 C.3       2 UNK         0.0286 
     63 CB         35.2242  -49.4588  -53.3538 C.3       2 UNK        -0.1963 
     64 N          33.8448  -47.6945  -52.3476 N.am      2 UNK        -0.4790 
     65 C          34.4538  -46.9441  -51.4275 C.2       1 UNK         0.5024 
     66 O          35.2505  -47.3881  -50.5963 O.2       1 UNK        -0.4888 
     67 H67        37.3551  -43.5049  -50.1575 H         1 UNK         0.0892 
     68 H68        38.0606  -43.4255  -51.7734 H         1 UNK         0.0892 
     69 H69        37.0651  -42.0943  -51.1769 H         1 UNK         0.0892 
     70 H70        35.6229  -44.9250  -50.0960 H         1 UNK         0.3107 
     71 H71        33.8159  -45.1920  -52.4515 H         1 UNK         0.0773 
     72 H72        32.0066  -45.7677  -50.8513 H         1 UNK         0.0680 
     73 H73        33.0702  -45.5220  -49.4936 H         1 UNK         0.0680 
     74 H74        30.2064  -42.5096  -50.7514 H         1 UNK         0.0650 
     75 H75        30.1439  -44.2513  -50.7311 H         1 UNK         0.0650 
     76 H76        32.7164  -43.3798  -53.0939 H         1 UNK         0.1397 
     77 H77        30.1813  -43.3071  -56.5055 H         1 UNK         0.1363 
     78 H78        28.4528  -43.4014  -52.5847 H         1 UNK         0.1355 
     79 H79        27.4990  -44.4477  -55.4560 H         1 UNK         0.0707 
     80 H80        27.0117  -43.1100  -54.4541 H         1 UNK         0.0707 
     81 H81        28.5110  -42.7717  -58.7780 H         1 UNK         0.1034 
     82 H82        28.7154  -44.1635  -57.7547 H         1 UNK         0.1034 
     83 H83        26.0444  -43.3726  -58.9706 H         1 UNK         0.0482 
     84 H84        26.3549  -46.5513  -59.8705 H         1 UNK         0.3460 
     85 H85        27.1345  -46.2881  -61.4103 H         1 UNK         0.3460 
     86 H86        26.8701  -45.6939  -57.3350 H         1 UNK         0.2989 
     87 H87        24.6148  -46.2228  -55.8613 H         1 UNK         0.0559 
     88 H88        22.9155  -47.4658  -58.0885 H         1 UNK         0.0848 
     89 H89        22.3721  -46.2979  -56.8934 H         1 UNK         0.0848 
     90 H90        22.8432  -47.9105  -56.3840 H         1 UNK         0.0848 
     91 H91        25.9276  -47.9669  -56.0757 H         1 UNK         0.3144 
     92 H92        26.2272  -50.5569  -58.2526 H         1 UNK         0.0727 
     93 H93        28.6940  -50.3148  -58.6040 H         1 UNK         0.0790 
     94 H94        27.7933  -49.3302  -59.7440 H         1 UNK         0.0790 
     95 H95        28.5653  -48.5728  -58.3608 H         1 UNK         0.0790 
     96 H96        28.0608  -49.7167  -56.2039 H         1 UNK         0.3215 
     97 H97        25.9748  -50.0475  -53.4492 H         1 UNK         0.0863 
     98 H98        27.7065  -51.6374  -52.5531 H         1 UNK         0.0808 
     99 H99        28.1003  -52.1188  -54.2043 H         1 UNK         0.0808 
    100 H100       26.5032  -52.4247  -53.5588 H         1 UNK         0.0808 
    101 H101       28.8131  -49.6278  -53.7772 H         1 UNK         0.3118 
    102 H102       28.4503  -46.0333  -53.9153 H         1 UNK         0.0546 
    103 H103       30.1323  -46.3864  -52.1655 H         1 UNK         0.0828 
    104 H104       29.7875  -48.1118  -52.1086 H         1 UNK         0.0828 
    105 H105       28.5691  -46.9480  -51.5994 H         1 UNK         0.0828 
    106 H106       30.7323  -47.7377  -54.3340 H         1 UNK         0.3005 
    107 H107       31.0374  -46.8474  -57.8031 H         1 UNK         0.1257 
    108 H108       33.3492  -46.7608  -56.3380 H         1 UNK         0.0775 
    109 H109       32.3085  -46.0448  -55.1568 H         1 UNK         0.0775 
    110 H110       33.6800  -43.6946  -55.2327 H         1 UNK         0.0840 
    111 H111       32.9483  -42.4667  -56.2400 H         1 UNK         0.0840 
    112 H112       31.7844  -48.8936  -55.7706 H         1 UNK         0.2987 
    113 H113       31.3581  -51.4701  -57.9646 H         1 UNK         0.0785 
    114 H114       33.5013  -50.8921  -59.1151 H         1 UNK         0.0798 
    115 H115       33.7498  -52.1625  -57.9312 H         1 UNK         0.0798 
    116 H116       34.2462  -50.5078  -57.5700 H         1 UNK         0.0798 
    117 H117       32.9892  -51.3872  -55.6206 H         1 UNK         0.3079 
    118 H118       30.3783  -51.1578  -53.2212 H         1 UNK         0.0794 
    119 H119       31.3123  -53.3073  -52.4540 H         1 UNK         0.0786 
    120 H120       32.1370  -53.5441  -53.9954 H         1 UNK         0.0786 
    121 H121       30.3805  -53.5629  -53.9184 H         1 UNK         0.0786 
    122 H122       33.0744  -51.5469  -52.7080 H         1 UNK         0.3032 
    123 H123       34.0339  -49.6208  -51.5403 H         1 UNK         0.1094 
    124 H124       35.1767  -49.0002  -54.3426 H         1 UNK         0.0794 
    125 H125       36.1295  -49.1000  -52.8638 H         1 UNK         0.0794 
    126 H126       35.3415  -50.5337  -53.4959 H         1 UNK         0.0794 
    127 H127       33.1492  -47.2851  -52.9595 H         1 UNK         0.3016 
@<TRIPOS>BOND
     1    1    2 1    
     2    1   67 1    
     3    1   68 1    
     4    1   69 1    
     5    2    3 2    
     6    2    4 am   BACKBONE|DICT|INTERRES
     7    4    5 1    
     8    4   70 1    
     9    5    6 1    
    10    5   65 1    
    11    5   71 1    
    12    6    7 1    
    13    6   72 1    
    14    6   73 1    
    15    7    8 1    
    16    8    9 1    
    17    8   74 1    
    18    8   75 1    
    19    9   10 ar   
    20    9   14 ar   
    21   10   11 ar   
    22   10   76 1    
    23   11   12 ar   
    24   11   48 1    
    25   12   13 ar   
    26   12   77 1    
    27   13   14 ar   
    28   13   15 1    
    29   14   78 1    
    30   15   16 1    
    31   15   79 1    
    32   15   80 1    
    33   16   17 1    
    34   17   18 1    
    35   17   81 1    
    36   17   82 1    
    37   18   19 1    
    38   18   22 1    
    39   18   83 1    
    40   19   20 am   BACKBONE|DICT|INTERRES
    41   19   21 2    
    42   20   84 1    
    43   20   85 1    
    44   22   23 am   BACKBONE|DICT|INTERRES
    45   22   86 1    
    46   23   24 2    
    47   23   25 1    
    48   25   26 1    
    49   25   27 1    
    50   25   87 1    
    51   26   88 1    
    52   26   89 1    
    53   26   90 1    
    54   27   28 am   BACKBONE|DICT|INTERRES
    55   27   91 1    
    56   28   29 2    
    57   28   30 1    
    58   30   31 1    
    59   30   32 1    
    60   30   92 1    
    61   31   93 1    
    62   31   94 1    
    63   31   95 1    
    64   32   33 am   BACKBONE|DICT|INTERRES
    65   32   96 1    
    66   33   34 2    
    67   33   35 1    
    68   35   36 1    
    69   35   37 1    
    70   35   97 1    
    71   36   98 1    
    72   36   99 1    
    73   36  100 1    
    74   37   38 am   BACKBONE|DICT|INTERRES
    75   37  101 1    
    76   38   39 2    
    77   38   40 1    
    78   40   41 1    
    79   40   42 1    
    80   40  102 1    
    81   41  103 1    
    82   41  104 1    
    83   41  105 1    
    84   42   43 am   BACKBONE|DICT|INTERRES
    85   42  106 1    
    86   43   44 2    
    87   43   45 1    
    88   45   46 1    
    89   45   49 1    
    90   45  107 1    
    91   46   47 1    
    92   46  108 1    
    93   46  109 1    
    94   47   48 1    
    95   48  110 1    
    96   48  111 1    
    97   49   50 am   BACKBONE|DICT|INTERRES
    98   49  112 1    
    99   50   51 2    
   100   50   52 1    
   101   52   53 1    
   102   52   54 1    
   103   52  113 1    
   104   53  114 1    
   105   53  115 1    
   106   53  116 1    
   107   54   55 am   BACKBONE|DICT|INTERRES
   108   54  117 1    
   109   55   56 2    
   110   55   57 1    
   111   57   58 1    
   112   57   59 1    
   113   57  118 1    
   114   58  119 1    
   115   58  120 1    
   116   58  121 1    
   117   59   60 am   BACKBONE|DICT|INTERRES
   118   59  122 1    
   119   60   61 2    
   120   60   62 1    
   121   62   63 1    
   122   62   64 1    
   123   62  123 1    
   124   63  124 1    
   125   63  125 1    
   126   63  126 1    
   127   64   65 am   BACKBONE|DICT|INTERRES
   128   64  127 1    
   129   65   66 2    
@<TRIPOS>SUBSTRUCTURE
     1 UNK         1 GROUP             0       ****    0 ROOT    
