@<TRIPOS>MOLECULE
3R134
127   129    1
SMALL
USER_CHARGES


@<TRIPOS>ATOM
      1 CA         29.9475  -45.0582  -52.4519 C.3       0 UNK        -0.1968 
      2 C          31.2350  -45.1427  -51.6520 C.2       0 UNK         0.4852 
      3 O          31.2346  -45.6781  -50.5429 O.2       0 UNK        -0.5359 
      4 N          32.3311  -44.6025  -52.2021 N.am      1 UNK        -0.4300 
      5 CA         33.6445  -44.5470  -51.5480 C.3       1 UNK         0.0863 
      6 C6         34.5116  -43.3806  -52.0837 C.3       11 UNK        -0.0953 
      7 S7         34.9463  -43.4822  -53.8549 S.3       11 UNK        -0.2369 
      8 C8         33.9247  -42.1695  -54.6066 C.3       11 UNK         0.0226 
      9 C9         32.6390  -42.7283  -55.1985 C.ar      11 UNK        -0.0699 
     10 C10        32.7100  -43.5807  -56.3038 C.ar      11 UNK        -0.0804 
     11 C11        31.5516  -44.1336  -56.8575 C.ar      11 UNK        -0.0871 
     12 C12        30.3120  -43.8022  -56.3083 C.ar      11 UNK        -0.1008 
     13 C13        30.2192  -42.9119  -55.2347 C.ar      11 UNK        -0.0735 
     14 C14        31.3882  -42.3848  -54.6729 C.ar      11 UNK        -0.0945 
     15 C15        28.8484  -42.5495  -54.6820 C.3       11 UNK         0.0169 
     16 S16        27.8308  -41.6888  -55.9222 S.3       11 UNK        -0.2669 
     17 C17        26.1644  -41.8372  -55.1860 C.3       11 UNK        -0.0850 
     18 CA         25.5657  -43.2757  -55.2140 C.3       10 UNK         0.0855 
     19 C          24.1278  -43.3108  -54.6208 C.2       10 UNK         0.5543 
     20 N          23.1706  -43.9941  -55.2372 N.am      10 UNK        -0.7343 
     21 O          23.8762  -42.7194  -53.5737 O.2       10 UNK        -0.5027 
     22 N          25.6614  -43.9006  -56.5468 N.am      10 UNK        -0.4495 
     23 C          26.4089  -44.9708  -56.8402 C.2       10 UNK         0.4903 
     24 O          27.1131  -45.5681  -56.0266 O.2       10 UNK        -0.4860 
     25 CA         26.3891  -45.4221  -58.3048 C.3       9 UNK         0.0227 
     26 CB         27.2442  -44.4843  -59.1788 C.3       9 UNK        -0.1964 
     27 N          26.8916  -46.7913  -58.4217 N.am      9 UNK        -0.4231 
     28 C          26.5569  -47.6479  -59.3954 C.2       9 UNK         0.5014 
     29 O          25.7441  -47.3853  -60.2836 O.2       9 UNK        -0.5270 
     30 CA         27.2424  -49.0229  -59.4071 C.3       8 UNK         0.0284 
     31 CB         28.6182  -48.9305  -60.0898 C.3       8 UNK        -0.1977 
     32 N          27.4050  -49.5795  -58.0635 N.am      8 UNK        -0.4342 
     33 C          26.5836  -50.4791  -57.5042 C.2       8 UNK         0.5039 
     34 O          25.5684  -50.9087  -58.0543 O.2       8 UNK        -0.5547 
     35 CA         26.9541  -51.0242  -56.1102 C.3       7 UNK         0.0281 
     36 CB         27.6139  -52.4072  -56.2357 C.3       7 UNK        -0.1963 
     37 N          27.8460  -50.1459  -55.3542 N.am      7 UNK        -0.4444 
     38 C          27.4864  -48.9762  -54.8102 C.2       7 UNK         0.5104 
     39 O          26.3307  -48.5532  -54.7983 O.2       7 UNK        -0.5100 
     40 CA         28.6184  -48.1340  -54.1941 C.3       6 UNK         0.0396 
     41 CB         28.8037  -48.5123  -52.7151 C.3       6 UNK        -0.1801 
     42 N          29.9018  -48.2747  -54.8936 N.am      6 UNK        -0.4747 
     43 C          30.1268  -48.0317  -56.1948 C.2       6 UNK         0.5012 
     44 O          29.2632  -47.6407  -56.9780 O.2       6 UNK        -0.5003 
     45 CA         31.5341  -48.3551  -56.7273 C.3       5 UNK         0.0782 
     46 C46        32.5392  -47.2057  -56.4536 C.3       11 UNK        -0.0868 
     47 S47        32.9618  -46.2950  -57.9736 S.3       11 UNK        -0.2515 
     48 C48        31.6162  -45.0669  -58.0619 C.3       11 UNK         0.0199 
     49 N          32.0002  -49.6306  -56.1856 N.am      5 UNK        -0.4607 
     50 C          31.6373  -50.8321  -56.6523 C.2       4 UNK         0.5031 
     51 O          30.9091  -50.9949  -57.6307 O.2       4 UNK        -0.5119 
     52 CA         32.1637  -52.0606  -55.8894 C.3       4 UNK         0.0263 
     53 CB         33.4751  -52.5603  -56.5160 C.3       4 UNK        -0.1967 
     54 N          32.3744  -51.8000  -54.4622 N.am      4 UNK        -0.4237 
     55 C          31.3864  -51.5652  -53.5878 C.2       3 UNK         0.4908 
     56 O          30.1912  -51.5918  -53.8837 O.2       3 UNK        -0.5102 
     57 CA         31.8049  -51.1945  -52.1539 C.3       3 UNK         0.0241 
     58 CB         32.0439  -52.4627  -51.3188 C.3       3 UNK        -0.1971 
     59 N          32.9822  -50.3173  -52.0678 N.am      3 UNK        -0.4139 
     60 C          33.0696  -49.0984  -52.6179 C.2       2 UNK         0.5016 
     61 O          32.2111  -48.6181  -53.3622 O.2       2 UNK        -0.5319 
     62 CA         34.3239  -48.2737  -52.3135 C.3       2 UNK         0.0286 
     63 CB         35.4199  -48.5204  -53.3632 C.3       2 UNK        -0.1963 
     64 N          33.9241  -46.8705  -52.3341 N.am      2 UNK        -0.4790 
     65 C          34.3879  -45.9046  -51.5328 C.2       1 UNK         0.5024 
     66 O          35.3434  -46.0597  -50.7704 O.2       1 UNK        -0.4888 
     67 H67        29.5557  -44.0443  -52.4009 H         1 UNK         0.0892 
     68 H68        30.1115  -45.3273  -53.4957 H         1 UNK         0.0892 
     69 H69        29.1897  -45.7234  -52.0413 H         1 UNK         0.0892 
     70 H70        32.2843  -44.1842  -53.1218 H         1 UNK         0.3107 
     71 H71        33.4604  -44.3194  -50.4954 H         1 UNK         0.0773 
     72 H72        35.4435  -43.3215  -51.5185 H         1 UNK         0.0680 
     73 H73        34.0033  -42.4359  -51.8878 H         1 UNK         0.0680 
     74 H74        34.5009  -41.7024  -55.4065 H         1 UNK         0.0650 
     75 H75        33.7191  -41.3780  -53.8850 H         1 UNK         0.0650 
     76 H76        33.6766  -43.8257  -56.7226 H         1 UNK         0.1397 
     77 H77        29.4072  -44.2218  -56.7263 H         1 UNK         0.1363 
     78 H78        31.3242  -41.7062  -53.8331 H         1 UNK         0.1355 
     79 H79        28.3519  -43.4711  -54.3808 H         1 UNK         0.0707 
     80 H80        28.9321  -41.9271  -53.7899 H         1 UNK         0.0707 
     81 H81        26.2086  -41.4627  -54.1614 H         1 UNK         0.1034 
     82 H82        25.5082  -41.1515  -55.7249 H         1 UNK         0.1034 
     83 H83        26.1378  -43.8731  -54.5038 H         1 UNK         0.0482 
     84 H84        22.2443  -44.0131  -54.8400 H         1 UNK         0.3460 
     85 H85        23.3698  -44.5133  -56.0770 H         1 UNK         0.3460 
     86 H86        25.1192  -43.4607  -57.2764 H         1 UNK         0.2989 
     87 H87        25.3519  -45.3887  -58.6450 H         1 UNK         0.0559 
     88 H88        26.9171  -43.4477  -59.0893 H         1 UNK         0.0848 
     89 H89        27.1764  -44.7527  -60.2331 H         1 UNK         0.0848 
     90 H90        28.2960  -44.5191  -58.8935 H         1 UNK         0.0848 
     91 H91        27.5686  -47.0641  -57.7106 H         1 UNK         0.3144 
     92 H92        26.6249  -49.6941  -60.0080 H         1 UNK         0.0727 
     93 H93        29.1085  -49.9037  -60.1258 H         1 UNK         0.0790 
     94 H94        29.2861  -48.2399  -59.5744 H         1 UNK         0.0790 
     95 H95        28.5186  -48.5785  -61.1174 H         1 UNK         0.0790 
     96 H96        28.1834  -49.2198  -57.5218 H         1 UNK         0.3215 
     97 H97        26.0265  -51.1365  -55.5448 H         1 UNK         0.0863 
     98 H98        27.8287  -52.8355  -55.2562 H         1 UNK         0.0808 
     99 H99        28.5513  -52.3572  -56.7915 H         1 UNK         0.0808 
    100 H100       26.9605  -53.1064  -56.7594 H         1 UNK         0.0808 
    101 H101       28.8046  -50.4519  -55.2340 H         1 UNK         0.3118 
    102 H102       28.3321  -47.0831  -54.2497 H         1 UNK         0.0546 
    103 H103       28.9443  -49.5856  -52.5888 H         1 UNK         0.0828 
    104 H104       27.9260  -48.2317  -52.1318 H         1 UNK         0.0828 
    105 H105       29.6658  -48.0153  -52.2715 H         1 UNK         0.0828 
    106 H106       30.6977  -48.5532  -54.3207 H         1 UNK         0.3005 
    107 H107       31.4300  -48.4856  -57.8076 H         1 UNK         0.1257 
    108 H108       33.4804  -47.6025  -56.0711 H         1 UNK         0.0775 
    109 H109       32.1963  -46.5168  -55.6788 H         1 UNK         0.0775 
    110 H110       31.7526  -44.4638  -58.9603 H         1 UNK         0.0840 
    111 H111       30.6710  -45.5968  -58.1900 H         1 UNK         0.0840 
    112 H112       32.5354  -49.5805  -55.3297 H         1 UNK         0.2987 
    113 H113       31.4151  -52.8506  -55.9832 H         1 UNK         0.0785 
    114 H114       33.3397  -52.7847  -57.5751 H         1 UNK         0.0798 
    115 H115       33.8219  -53.4751  -56.0350 H         1 UNK         0.0798 
    116 H116       34.2699  -51.8170  -56.4398 H         1 UNK         0.0798 
    117 H117       33.3288  -51.7647  -54.1345 H         1 UNK         0.3079 
    118 H118       30.9696  -50.6519  -51.7072 H         1 UNK         0.0794 
    119 H119       32.2223  -52.2205  -50.2709 H         1 UNK         0.0786 
    120 H120       32.8995  -53.0330  -51.6827 H         1 UNK         0.0786 
    121 H121       31.1749  -53.1216  -51.3522 H         1 UNK         0.0786 
    122 H122       33.7414  -50.6425  -51.4860 H         1 UNK         0.3032 
    123 H123       34.6914  -48.5420  -51.3202 H         1 UNK         0.1094 
    124 H124       35.0815  -48.2691  -54.3687 H         1 UNK         0.0794 
    125 H125       36.3073  -47.9230  -53.1530 H         1 UNK         0.0794 
    126 H126       35.7282  -49.5665  -53.3716 H         1 UNK         0.0794 
    127 H127       33.0975  -46.6892  -52.8895 H         1 UNK         0.3016 
@<TRIPOS>BOND
     1    1    2 1    
     2    1   67 1    
     3    1   68 1    
     4    1   69 1    
     5    2    3 2    
     6    2    4 am   BACKBONE|DICT|INTERRES
     7    4    5 1    
     8    4   70 1    
     9    5    6 1    
    10    5   65 1    
    11    5   71 1    
    12    6    7 1    
    13    6   72 1    
    14    6   73 1    
    15    7    8 1    
    16    8    9 1    
    17    8   74 1    
    18    8   75 1    
    19    9   10 ar   
    20    9   14 ar   
    21   10   11 ar   
    22   10   76 1    
    23   11   12 ar   
    24   11   48 1    
    25   12   13 ar   
    26   12   77 1    
    27   13   14 ar   
    28   13   15 1    
    29   14   78 1    
    30   15   16 1    
    31   15   79 1    
    32   15   80 1    
    33   16   17 1    
    34   17   18 1    
    35   17   81 1    
    36   17   82 1    
    37   18   19 1    
    38   18   22 1    
    39   18   83 1    
    40   19   20 am   BACKBONE|DICT|INTERRES
    41   19   21 2    
    42   20   84 1    
    43   20   85 1    
    44   22   23 am   BACKBONE|DICT|INTERRES
    45   22   86 1    
    46   23   24 2    
    47   23   25 1    
    48   25   26 1    
    49   25   27 1    
    50   25   87 1    
    51   26   88 1    
    52   26   89 1    
    53   26   90 1    
    54   27   28 am   BACKBONE|DICT|INTERRES
    55   27   91 1    
    56   28   29 2    
    57   28   30 1    
    58   30   31 1    
    59   30   32 1    
    60   30   92 1    
    61   31   93 1    
    62   31   94 1    
    63   31   95 1    
    64   32   33 am   BACKBONE|DICT|INTERRES
    65   32   96 1    
    66   33   34 2    
    67   33   35 1    
    68   35   36 1    
    69   35   37 1    
    70   35   97 1    
    71   36   98 1    
    72   36   99 1    
    73   36  100 1    
    74   37   38 am   BACKBONE|DICT|INTERRES
    75   37  101 1    
    76   38   39 2    
    77   38   40 1    
    78   40   41 1    
    79   40   42 1    
    80   40  102 1    
    81   41  103 1    
    82   41  104 1    
    83   41  105 1    
    84   42   43 am   BACKBONE|DICT|INTERRES
    85   42  106 1    
    86   43   44 2    
    87   43   45 1    
    88   45   46 1    
    89   45   49 1    
    90   45  107 1    
    91   46   47 1    
    92   46  108 1    
    93   46  109 1    
    94   47   48 1    
    95   48  110 1    
    96   48  111 1    
    97   49   50 am   BACKBONE|DICT|INTERRES
    98   49  112 1    
    99   50   51 2    
   100   50   52 1    
   101   52   53 1    
   102   52   54 1    
   103   52  113 1    
   104   53  114 1    
   105   53  115 1    
   106   53  116 1    
   107   54   55 am   BACKBONE|DICT|INTERRES
   108   54  117 1    
   109   55   56 2    
   110   55   57 1    
   111   57   58 1    
   112   57   59 1    
   113   57  118 1    
   114   58  119 1    
   115   58  120 1    
   116   58  121 1    
   117   59   60 am   BACKBONE|DICT|INTERRES
   118   59  122 1    
   119   60   61 2    
   120   60   62 1    
   121   62   63 1    
   122   62   64 1    
   123   62  123 1    
   124   63  124 1    
   125   63  125 1    
   126   63  126 1    
   127   64   65 am   BACKBONE|DICT|INTERRES
   128   64  127 1    
   129   65   66 2    
@<TRIPOS>SUBSTRUCTURE
     1 UNK         1 GROUP             0       ****    0 ROOT    
