@<TRIPOS>MOLECULE
3R134
127   129    1
SMALL
USER_CHARGES


@<TRIPOS>ATOM
      1 CA         29.6563  -46.2975  -54.3338 C.3       0 UNK        -0.1968 
      2 C          30.3550  -45.5299  -53.2261 C.2       0 UNK         0.4852 
      3 O          29.8839  -45.5401  -52.0887 O.2       0 UNK        -0.5359 
      4 N          31.4968  -44.8975  -53.5366 N.am      1 UNK        -0.4300 
      5 CA         32.4109  -44.3046  -52.5464 C.3       1 UNK         0.0863 
      6 C6         33.4566  -43.3674  -53.1983 C.3       11 UNK        -0.0953 
      7 S7         32.6846  -41.8574  -53.8708 S.3       11 UNK        -0.2369 
      8 C8         33.0986  -41.9565  -55.6409 C.3       11 UNK         0.0226 
      9 C9         32.3631  -43.0902  -56.3394 C.ar      11 UNK        -0.0699 
     10 C10        33.0709  -44.1778  -56.8561 C.ar      11 UNK        -0.0804 
     11 C11        32.3983  -45.2200  -57.5007 C.ar      11 UNK        -0.0871 
     12 C12        31.0066  -45.1651  -57.6174 C.ar      11 UNK        -0.1008 
     13 C13        30.2808  -44.0759  -57.1233 C.ar      11 UNK        -0.0735 
     14 C14        30.9745  -43.0364  -56.4894 C.ar      11 UNK        -0.0945 
     15 C15        28.7620  -44.0808  -57.3186 C.3       11 UNK         0.0169 
     16 S16        27.8532  -42.5808  -56.7951 S.3       11 UNK        -0.2669 
     17 C17        27.9002  -42.6856  -54.9671 C.3       11 UNK        -0.0850 
     18 CA         26.6174  -43.2716  -54.3166 C.3       10 UNK         0.0855 
     19 C          25.3896  -42.3260  -54.4347 C.2       10 UNK         0.5543 
     20 N          25.3567  -41.2613  -53.6445 N.am      10 UNK        -0.7343 
     21 O          24.4843  -42.5279  -55.2418 O.2       10 UNK        -0.5027 
     22 N          26.3596  -44.6251  -54.8138 N.am      10 UNK        -0.4495 
     23 C          25.6532  -45.5743  -54.1917 C.2       10 UNK         0.4903 
     24 O          25.1126  -45.4240  -53.0950 O.2       10 UNK        -0.4860 
     25 CA         25.5967  -46.9388  -54.9067 C.3       9 UNK         0.0227 
     26 CB         24.4311  -47.8327  -54.4322 C.3       9 UNK        -0.1964 
     27 N          25.6363  -46.8193  -56.3709 N.am      9 UNK        -0.4231 
     28 C          24.6883  -46.3046  -57.1726 C.2       9 UNK         0.5014 
     29 O          23.6002  -45.8920  -56.7700 O.2       9 UNK        -0.5270 
     30 CA         24.9959  -46.2087  -58.6818 C.3       8 UNK         0.0284 
     31 CB         25.1217  -44.7371  -59.1127 C.3       8 UNK        -0.1977 
     32 N          26.2051  -46.9259  -59.0952 N.am      8 UNK        -0.4342 
     33 C          26.3296  -48.2574  -59.1640 C.2       8 UNK         0.5039 
     34 O          25.4108  -49.0447  -58.9335 O.2       8 UNK        -0.5547 
     35 CA         27.7229  -48.8148  -59.5093 C.3       7 UNK         0.0281 
     36 CB         28.6816  -47.7805  -60.1437 C.3       7 UNK        -0.1963 
     37 N          28.3427  -49.4437  -58.3375 N.am      7 UNK        -0.4444 
     38 C          28.6143  -48.8731  -57.1535 C.2       7 UNK         0.5104 
     39 O          28.3826  -47.6904  -56.8942 O.2       7 UNK        -0.5100 
     40 CA         29.2228  -49.7741  -56.0576 C.3       6 UNK         0.0396 
     41 CB         28.9614  -51.2806  -56.2763 C.3       6 UNK        -0.1801 
     42 N          30.6558  -49.5396  -55.8402 N.am      6 UNK        -0.4747 
     43 C          31.6376  -49.5767  -56.7576 C.2       6 UNK         0.5012 
     44 O          31.4632  -49.7679  -57.9612 O.2       6 UNK        -0.5003 
     45 CA         33.0706  -49.4282  -56.2168 C.3       5 UNK         0.0782 
     46 C46        33.3903  -47.9640  -55.8042 C.3       11 UNK        -0.0868 
     47 S47        34.4220  -47.1113  -57.0360 S.3       11 UNK        -0.2515 
     48 C48        33.1675  -46.3748  -58.1337 C.3       11 UNK         0.0199 
     49 N          33.2861  -50.3733  -55.1191 N.am      5 UNK        -0.4607 
     50 C          33.5682  -51.6748  -55.2789 C.2       4 UNK         0.5031 
     51 O          33.7315  -52.2048  -56.3781 O.2       4 UNK        -0.5119 
     52 CA         33.7165  -52.5383  -54.0111 C.3       4 UNK         0.0263 
     53 CB         35.2024  -52.8019  -53.7158 C.3       4 UNK        -0.1967 
     54 N          33.0973  -51.9377  -52.8287 N.am      4 UNK        -0.4237 
     55 C          31.7790  -51.9067  -52.5882 C.2       3 UNK         0.4908 
     56 O          30.9404  -52.4769  -53.2853 O.2       3 UNK        -0.5102 
     57 CA         31.3159  -51.0670  -51.3828 C.3       3 UNK         0.0241 
     58 CB         31.1639  -51.9529  -50.1357 C.3       3 UNK        -0.1971 
     59 N          32.2001  -49.9343  -51.0739 N.am      3 UNK        -0.4139 
     60 C          32.4389  -48.9113  -51.9048 C.2       2 UNK         0.5016 
     61 O          31.9526  -48.8198  -53.0386 O.2       2 UNK        -0.5319 
     62 CA         33.4258  -47.8420  -51.4211 C.3       2 UNK         0.0286 
     63 CB         34.8788  -48.2672  -51.6925 C.3       2 UNK        -0.1963 
     64 N          33.1248  -46.6270  -52.1637 N.am      2 UNK        -0.4790 
     65 C          33.0987  -45.3824  -51.6745 C.2       1 UNK         0.5024 
     66 O          33.5536  -45.0746  -50.5720 O.2       1 UNK        -0.4888 
     67 H67        28.7342  -45.8001  -54.6158 H         1 UNK         0.0892 
     68 H68        29.4084  -47.3015  -53.9913 H         1 UNK         0.0892 
     69 H69        30.2786  -46.3959  -55.2211 H         1 UNK         0.0892 
     70 H70        31.8050  -44.8533  -54.4986 H         1 UNK         0.3107 
     71 H71        31.8076  -43.7053  -51.8606 H         1 UNK         0.0773 
     72 H72        34.0164  -43.8901  -53.9759 H         1 UNK         0.0680 
     73 H73        34.1941  -43.0414  -52.4622 H         1 UNK         0.0680 
     74 H74        32.8291  -41.0128  -56.1170 H         1 UNK         0.0650 
     75 H75        34.1793  -42.0581  -55.7525 H         1 UNK         0.0650 
     76 H76        34.1485  -44.2087  -56.7685 H         1 UNK         0.1397 
     77 H77        30.4827  -45.9707  -58.1122 H         1 UNK         0.1363 
     78 H78        30.4498  -42.1756  -56.1022 H         1 UNK         0.1355 
     79 H79        28.5625  -44.2214  -58.3818 H         1 UNK         0.0707 
     80 H80        28.3412  -44.9514  -56.8176 H         1 UNK         0.0707 
     81 H81        28.0978  -41.6857  -54.5766 H         1 UNK         0.1034 
     82 H82        28.7621  -43.2799  -54.6637 H         1 UNK         0.1034 
     83 H83        26.8240  -43.3695  -53.2486 H         1 UNK         0.0482 
     84 H84        26.0907  -41.0800  -52.9776 H         1 UNK         0.3460 
     85 H85        24.5748  -40.6283  -53.7106 H         1 UNK         0.3460 
     86 H86        26.6928  -44.8136  -55.7455 H         1 UNK         0.2989 
     87 H87        26.5209  -47.4502  -54.6336 H         1 UNK         0.0559 
     88 H88        23.4630  -47.3543  -54.5820 H         1 UNK         0.0848 
     89 H89        24.5186  -48.0539  -53.3678 H         1 UNK         0.0848 
     90 H90        24.4210  -48.7860  -54.9605 H         1 UNK         0.0848 
     91 H91        26.5072  -47.1247  -56.7979 H         1 UNK         0.3144 
     92 H92        24.1461  -46.6464  -59.2100 H         1 UNK         0.0727 
     93 H93        24.2170  -44.1790  -58.8668 H         1 UNK         0.0790 
     94 H94        25.2706  -44.6479  -60.1890 H         1 UNK         0.0790 
     95 H95        25.9528  -44.2381  -58.6143 H         1 UNK         0.0790 
     96 H96        27.0212  -46.3662  -59.2941 H         1 UNK         0.3215 
     97 H97        27.5629  -49.6073  -60.2421 H         1 UNK         0.0863 
     98 H98        29.6259  -48.2485  -60.4229 H         1 UNK         0.0808 
     99 H99        28.9156  -46.9577  -59.4697 H         1 UNK         0.0808 
    100 H100       28.2555  -47.3554  -61.0536 H         1 UNK         0.0808 
    101 H101       28.5659  -50.4234  -58.4393 H         1 UNK         0.3118 
    102 H102       28.7241  -49.4926  -55.1291 H         1 UNK         0.0546 
    103 H103       27.8997  -51.4813  -56.4273 H         1 UNK         0.0828 
    104 H104       29.2709  -51.8572  -55.4046 H         1 UNK         0.0828 
    105 H105       29.5038  -51.6770  -57.1353 H         1 UNK         0.0828 
    106 H106       30.9269  -49.3575  -54.8796 H         1 UNK         0.3005 
    107 H107       33.7436  -49.7194  -57.0274 H         1 UNK         0.1257 
    108 H108       33.9641  -47.9480  -54.8771 H         1 UNK         0.0775 
    109 H109       32.4963  -47.3750  -55.5930 H         1 UNK         0.0775 
    110 H110       33.6690  -46.0009  -59.0272 H         1 UNK         0.0840 
    111 H111       32.4887  -47.1583  -58.4737 H         1 UNK         0.0840 
    112 H112       33.0853  -50.0212  -54.1912 H         1 UNK         0.2987 
    113 H113       33.2313  -53.4967  -54.2089 H         1 UNK         0.0785 
    114 H114       35.6901  -53.2816  -54.5657 H         1 UNK         0.0798 
    115 H115       35.3257  -53.4644  -52.8588 H         1 UNK         0.0798 
    116 H116       35.7443  -51.8781  -53.5087 H         1 UNK         0.0798 
    117 H117       33.7120  -51.4614  -52.1853 H         1 UNK         0.3079 
    118 H118       30.3345  -50.6584  -51.6340 H         1 UNK         0.0794 
    119 H119       32.1195  -52.3709  -49.8167 H         1 UNK         0.0786 
    120 H120       30.4913  -52.7896  -50.3312 H         1 UNK         0.0786 
    121 H121       30.7449  -51.3931  -49.2992 H         1 UNK         0.0786 
    122 H122       32.6427  -49.9415  -50.1655 H         1 UNK         0.3032 
    123 H123       33.2743  -47.6774  -50.3515 H         1 UNK         0.1094 
    124 H124       35.0514  -48.4791  -52.7483 H         1 UNK         0.0794 
    125 H125       35.5789  -47.4873  -51.3920 H         1 UNK         0.0794 
    126 H126       35.1376  -49.1656  -51.1311 H         1 UNK         0.0794 
    127 H127       32.6618  -46.8042  -53.0457 H         1 UNK         0.3016 
@<TRIPOS>BOND
     1    1    2 1    
     2    1   67 1    
     3    1   68 1    
     4    1   69 1    
     5    2    3 2    
     6    2    4 am   BACKBONE|DICT|INTERRES
     7    4    5 1    
     8    4   70 1    
     9    5    6 1    
    10    5   65 1    
    11    5   71 1    
    12    6    7 1    
    13    6   72 1    
    14    6   73 1    
    15    7    8 1    
    16    8    9 1    
    17    8   74 1    
    18    8   75 1    
    19    9   10 ar   
    20    9   14 ar   
    21   10   11 ar   
    22   10   76 1    
    23   11   12 ar   
    24   11   48 1    
    25   12   13 ar   
    26   12   77 1    
    27   13   14 ar   
    28   13   15 1    
    29   14   78 1    
    30   15   16 1    
    31   15   79 1    
    32   15   80 1    
    33   16   17 1    
    34   17   18 1    
    35   17   81 1    
    36   17   82 1    
    37   18   19 1    
    38   18   22 1    
    39   18   83 1    
    40   19   20 am   BACKBONE|DICT|INTERRES
    41   19   21 2    
    42   20   84 1    
    43   20   85 1    
    44   22   23 am   BACKBONE|DICT|INTERRES
    45   22   86 1    
    46   23   24 2    
    47   23   25 1    
    48   25   26 1    
    49   25   27 1    
    50   25   87 1    
    51   26   88 1    
    52   26   89 1    
    53   26   90 1    
    54   27   28 am   BACKBONE|DICT|INTERRES
    55   27   91 1    
    56   28   29 2    
    57   28   30 1    
    58   30   31 1    
    59   30   32 1    
    60   30   92 1    
    61   31   93 1    
    62   31   94 1    
    63   31   95 1    
    64   32   33 am   BACKBONE|DICT|INTERRES
    65   32   96 1    
    66   33   34 2    
    67   33   35 1    
    68   35   36 1    
    69   35   37 1    
    70   35   97 1    
    71   36   98 1    
    72   36   99 1    
    73   36  100 1    
    74   37   38 am   BACKBONE|DICT|INTERRES
    75   37  101 1    
    76   38   39 2    
    77   38   40 1    
    78   40   41 1    
    79   40   42 1    
    80   40  102 1    
    81   41  103 1    
    82   41  104 1    
    83   41  105 1    
    84   42   43 am   BACKBONE|DICT|INTERRES
    85   42  106 1    
    86   43   44 2    
    87   43   45 1    
    88   45   46 1    
    89   45   49 1    
    90   45  107 1    
    91   46   47 1    
    92   46  108 1    
    93   46  109 1    
    94   47   48 1    
    95   48  110 1    
    96   48  111 1    
    97   49   50 am   BACKBONE|DICT|INTERRES
    98   49  112 1    
    99   50   51 2    
   100   50   52 1    
   101   52   53 1    
   102   52   54 1    
   103   52  113 1    
   104   53  114 1    
   105   53  115 1    
   106   53  116 1    
   107   54   55 am   BACKBONE|DICT|INTERRES
   108   54  117 1    
   109   55   56 2    
   110   55   57 1    
   111   57   58 1    
   112   57   59 1    
   113   57  118 1    
   114   58  119 1    
   115   58  120 1    
   116   58  121 1    
   117   59   60 am   BACKBONE|DICT|INTERRES
   118   59  122 1    
   119   60   61 2    
   120   60   62 1    
   121   62   63 1    
   122   62   64 1    
   123   62  123 1    
   124   63  124 1    
   125   63  125 1    
   126   63  126 1    
   127   64   65 am   BACKBONE|DICT|INTERRES
   128   64  127 1    
   129   65   66 2    
@<TRIPOS>SUBSTRUCTURE
     1 UNK         1 GROUP             0       ****    0 ROOT    
