@<TRIPOS>MOLECULE
3R134
127   129    1
SMALL
USER_CHARGES


@<TRIPOS>ATOM
      1 CA         38.0675  -42.5540  -54.8655 C.3       0 UNK        -0.1968 
      2 C          36.6816  -43.1005  -54.5590 C.2       0 UNK         0.4852 
      3 O          36.1419  -43.8769  -55.3484 O.2       0 UNK        -0.5359 
      4 N          36.1029  -42.7075  -53.4172 N.am      1 UNK        -0.4300 
      5 CA         34.7827  -43.1350  -52.9432 C.3       1 UNK         0.0863 
      6 C6         34.1256  -42.0533  -52.0408 C.3       11 UNK        -0.0953 
      7 S7         33.3546  -40.7458  -53.0551 S.3       11 UNK        -0.2369 
      8 C8         31.5987  -41.2534  -53.0537 C.3       11 UNK         0.0226 
      9 C9         31.4160  -42.6963  -53.5089 C.ar      11 UNK        -0.0699 
     10 C10        31.1957  -43.7060  -52.5679 C.ar      11 UNK        -0.0804 
     11 C11        31.1160  -45.0467  -52.9539 C.ar      11 UNK        -0.0871 
     12 C12        31.2290  -45.3664  -54.3139 C.ar      11 UNK        -0.1008 
     13 C13        31.4124  -44.3634  -55.2699 C.ar      11 UNK        -0.0735 
     14 C14        31.5099  -43.0297  -54.8619 C.ar      11 UNK        -0.0945 
     15 C15        31.5163  -44.7231  -56.7458 C.3       11 UNK         0.0169 
     16 S16        29.9322  -45.3138  -57.4289 S.3       11 UNK        -0.2669 
     17 C17        28.7970  -43.9507  -56.9938 C.3       11 UNK        -0.0850 
     18 CA         27.7976  -44.3866  -55.8801 C.3       10 UNK         0.0855 
     19 C          27.1787  -43.1820  -55.1110 C.2       10 UNK         0.5543 
     20 N          28.0135  -42.3386  -54.5183 N.am      10 UNK        -0.7343 
     21 O          25.9652  -43.0150  -55.0038 O.2       10 UNK        -0.5027 
     22 N          26.8141  -45.3672  -56.3703 N.am      10 UNK        -0.4495 
     23 C          25.8819  -45.1793  -57.3148 C.2       10 UNK         0.4903 
     24 O          25.7049  -44.1237  -57.9264 O.2       10 UNK        -0.4860 
     25 CA         25.0277  -46.4174  -57.6418 C.3       9 UNK         0.0227 
     26 CB         23.9534  -46.1614  -58.7208 C.3       9 UNK        -0.1964 
     27 N          25.8722  -47.5667  -57.9861 N.am      9 UNK        -0.4231 
     28 C          26.7115  -47.6904  -59.0273 C.2       9 UNK         0.5014 
     29 O          26.8321  -46.8561  -59.9253 O.2       9 UNK        -0.5270 
     30 CA         27.5766  -48.9642  -59.0816 C.3       8 UNK         0.0284 
     31 CB         29.0164  -48.6573  -58.6369 C.3       8 UNK        -0.1977 
     32 N          27.0596  -50.0616  -58.2624 N.am      8 UNK        -0.4342 
     33 C          25.9692  -50.7893  -58.5371 C.2       8 UNK         0.5039 
     34 O          25.2760  -50.6402  -59.5438 O.2       8 UNK        -0.5547 
     35 CA         25.5801  -51.8486  -57.4962 C.3       7 UNK         0.0281 
     36 CB         26.4219  -53.1228  -57.6764 C.3       7 UNK        -0.1963 
     37 N          25.7451  -51.3383  -56.1330 N.am      7 UNK        -0.4444 
     38 C          24.8257  -50.6148  -55.4799 C.2       7 UNK         0.5104 
     39 O          23.7223  -50.3296  -55.9449 O.2       7 UNK        -0.5100 
     40 CA         25.1927  -50.1222  -54.0682 C.3       6 UNK         0.0396 
     41 CB         24.7401  -51.1417  -53.0110 C.3       6 UNK        -0.1801 
     42 N          26.6224  -49.8499  -53.8975 N.am      6 UNK        -0.4747 
     43 C          27.2640  -48.8046  -54.4385 C.2       6 UNK         0.5012 
     44 O          26.7181  -47.9552  -55.1425 O.2       6 UNK        -0.5003 
     45 CA         28.7775  -48.7012  -54.1700 C.3       5 UNK         0.0782 
     46 C46        29.0309  -47.9354  -52.8458 C.3       11 UNK        -0.0868 
     47 S47        30.7991  -47.8272  -52.3998 S.3       11 UNK        -0.2515 
     48 C48        30.9543  -46.0946  -51.8513 C.3       11 UNK         0.0199 
     49 N          29.4899  -49.9870  -54.2116 N.am      5 UNK        -0.4607 
     50 C          29.4688  -50.8882  -55.2028 C.2       4 UNK         0.5031 
     51 O          28.6623  -50.8681  -56.1323 O.2       4 UNK        -0.5119 
     52 CA         30.6046  -51.9280  -55.1948 C.3       4 UNK         0.0263 
     53 CB         30.3787  -53.0577  -56.2169 C.3       4 UNK        -0.1967 
     54 N          31.8587  -51.2375  -55.5071 N.am      4 UNK        -0.4237 
     55 C          32.5734  -50.5455  -54.6110 C.2       3 UNK         0.4908 
     56 O          32.3980  -50.6379  -53.3922 O.2       3 UNK        -0.5102 
     57 CA         33.5813  -49.5239  -55.1617 C.3       3 UNK         0.0241 
     58 CB         32.9596  -48.6738  -56.2979 C.3       3 UNK        -0.1971 
     59 N          33.9866  -48.6722  -54.0446 N.am      3 UNK        -0.4139 
     60 C          34.9523  -47.7502  -54.0428 C.2       2 UNK         0.5016 
     61 O          35.6818  -47.5077  -55.0073 O.2       2 UNK        -0.5319 
     62 CA         35.1422  -46.9588  -52.7448 C.3       2 UNK         0.0286 
     63 CB         36.4370  -47.3668  -52.0189 C.3       2 UNK        -0.1963 
     64 N          35.1755  -45.5430  -53.0922 N.am      2 UNK        -0.4790 
     65 C          34.8543  -44.5288  -52.2833 C.2       1 UNK         0.5024 
     66 O          34.6210  -44.6668  -51.0811 O.2       1 UNK        -0.4888 
     67 H67        38.4318  -41.8988  -54.0748 H         1 UNK         0.0892 
     68 H68        38.7767  -43.3732  -54.9806 H         1 UNK         0.0892 
     69 H69        38.0490  -41.9865  -55.7949 H         1 UNK         0.0892 
     70 H70        36.6034  -42.0844  -52.7998 H         1 UNK         0.3107 
     71 H71        34.1411  -43.2739  -53.8152 H         1 UNK         0.0773 
     72 H72        33.3597  -42.4685  -51.3854 H         1 UNK         0.0680 
     73 H73        34.8614  -41.6014  -51.3737 H         1 UNK         0.0680 
     74 H74        31.0370  -40.5880  -53.7109 H         1 UNK         0.0650 
     75 H75        31.1886  -41.1119  -52.0524 H         1 UNK         0.0650 
     76 H76        31.1257  -43.4505  -51.5190 H         1 UNK         0.1397 
     77 H77        31.1756  -46.3915  -54.6476 H         1 UNK         0.1363 
     78 H78        31.6819  -42.2508  -55.5926 H         1 UNK         0.1355 
     79 H79        32.2701  -45.5012  -56.8746 H         1 UNK         0.0707 
     80 H80        31.8573  -43.8675  -57.3309 H         1 UNK         0.0707 
     81 H81        29.3844  -43.0821  -56.6980 H         1 UNK         0.1034 
     82 H82        28.2692  -43.6349  -57.8940 H         1 UNK         0.1034 
     83 H83        28.3597  -44.9266  -55.1167 H         1 UNK         0.0482 
     84 H84        29.0094  -42.4934  -54.5366 H         1 UNK         0.3460 
     85 H85        27.6345  -41.5602  -54.0026 H         1 UNK         0.3460 
     86 H86        26.8422  -46.2771  -55.9173 H         1 UNK         0.2989 
     87 H87        24.5077  -46.6871  -56.7210 H         1 UNK         0.0559 
     88 H88        23.2644  -45.3781  -58.4028 H         1 UNK         0.0848 
     89 H89        23.3619  -47.0568  -58.9111 H         1 UNK         0.0848 
     90 H90        24.3911  -45.8409  -59.6667 H         1 UNK         0.0848 
     91 H91        25.9127  -48.2908  -57.2812 H         1 UNK         0.3144 
     92 H92        27.6018  -49.2993  -60.1208 H         1 UNK         0.0727 
     93 H93        29.0531  -48.3233  -57.5991 H         1 UNK         0.0790 
     94 H94        29.4552  -47.8683  -59.2493 H         1 UNK         0.0790 
     95 H95        29.6577  -49.5341  -58.7287 H         1 UNK         0.0790 
     96 H96        27.6044  -50.3045  -57.4344 H         1 UNK         0.3215 
     97 H97        24.5318  -52.1111  -57.6575 H         1 UNK         0.0863 
     98 H98        26.1305  -53.8943  -56.9637 H         1 UNK         0.0808 
     99 H99        27.4872  -52.9299  -57.5453 H         1 UNK         0.0808 
    100 H100       26.2877  -53.5379  -58.6764 H         1 UNK         0.0808 
    101 H101       26.6576  -51.4570  -55.7104 H         1 UNK         0.3118 
    102 H102       24.6478  -49.1918  -53.8935 H         1 UNK         0.0546 
    103 H103       25.2610  -52.0941  -53.1168 H         1 UNK         0.0828 
    104 H104       23.6715  -51.3441  -53.0971 H         1 UNK         0.0828 
    105 H105       24.9165  -50.7717  -52.0008 H         1 UNK         0.0828 
    106 H106       27.1551  -50.5041  -53.3416 H         1 UNK         0.3005 
    107 H107       29.1912  -48.1015  -54.9839 H         1 UNK         0.1257 
    108 H108       28.5145  -48.4198  -52.0146 H         1 UNK         0.0775 
    109 H109       28.6182  -46.9266  -52.9151 H         1 UNK         0.0775 
    110 H110       30.0953  -45.8409  -51.2283 H         1 UNK         0.0840 
    111 H111       31.8291  -46.0340  -51.2020 H         1 UNK         0.0840 
    112 H112       30.2200  -50.0849  -53.5153 H         1 UNK         0.2987 
    113 H113       30.6555  -52.3747  -54.1993 H         1 UNK         0.0785 
    114 H114       29.4516  -53.5921  -56.0060 H         1 UNK         0.0798 
    115 H115       31.1874  -53.7879  -56.1838 H         1 UNK         0.0798 
    116 H116       30.3121  -52.6782  -57.2376 H         1 UNK         0.0798 
    117 H117       32.0537  -51.0960  -56.4879 H         1 UNK         0.3079 
    118 H118       34.4556  -50.0629  -55.5313 H         1 UNK         0.0794 
    119 H119       32.7373  -49.2789  -57.1770 H         1 UNK         0.0786 
    120 H120       33.6320  -47.8846  -56.6332 H         1 UNK         0.0786 
    121 H121       32.0289  -48.2006  -55.9825 H         1 UNK         0.0786 
    122 H122       33.4551  -48.8566  -53.2003 H         1 UNK         0.3032 
    123 H123       34.2881  -47.1417  -52.0876 H         1 UNK         0.1094 
    124 H124       36.4292  -48.4303  -51.7766 H         1 UNK         0.0794 
    125 H125       37.3186  -47.1766  -52.6326 H         1 UNK         0.0794 
    126 H126       36.5572  -46.8221  -51.0823 H         1 UNK         0.0794 
    127 H127       35.3885  -45.3393  -54.0664 H         1 UNK         0.3016 
@<TRIPOS>BOND
     1    1    2 1    
     2    1   67 1    
     3    1   68 1    
     4    1   69 1    
     5    2    3 2    
     6    2    4 am   BACKBONE|DICT|INTERRES
     7    4    5 1    
     8    4   70 1    
     9    5    6 1    
    10    5   65 1    
    11    5   71 1    
    12    6    7 1    
    13    6   72 1    
    14    6   73 1    
    15    7    8 1    
    16    8    9 1    
    17    8   74 1    
    18    8   75 1    
    19    9   10 ar   
    20    9   14 ar   
    21   10   11 ar   
    22   10   76 1    
    23   11   12 ar   
    24   11   48 1    
    25   12   13 ar   
    26   12   77 1    
    27   13   14 ar   
    28   13   15 1    
    29   14   78 1    
    30   15   16 1    
    31   15   79 1    
    32   15   80 1    
    33   16   17 1    
    34   17   18 1    
    35   17   81 1    
    36   17   82 1    
    37   18   19 1    
    38   18   22 1    
    39   18   83 1    
    40   19   20 am   BACKBONE|DICT|INTERRES
    41   19   21 2    
    42   20   84 1    
    43   20   85 1    
    44   22   23 am   BACKBONE|DICT|INTERRES
    45   22   86 1    
    46   23   24 2    
    47   23   25 1    
    48   25   26 1    
    49   25   27 1    
    50   25   87 1    
    51   26   88 1    
    52   26   89 1    
    53   26   90 1    
    54   27   28 am   BACKBONE|DICT|INTERRES
    55   27   91 1    
    56   28   29 2    
    57   28   30 1    
    58   30   31 1    
    59   30   32 1    
    60   30   92 1    
    61   31   93 1    
    62   31   94 1    
    63   31   95 1    
    64   32   33 am   BACKBONE|DICT|INTERRES
    65   32   96 1    
    66   33   34 2    
    67   33   35 1    
    68   35   36 1    
    69   35   37 1    
    70   35   97 1    
    71   36   98 1    
    72   36   99 1    
    73   36  100 1    
    74   37   38 am   BACKBONE|DICT|INTERRES
    75   37  101 1    
    76   38   39 2    
    77   38   40 1    
    78   40   41 1    
    79   40   42 1    
    80   40  102 1    
    81   41  103 1    
    82   41  104 1    
    83   41  105 1    
    84   42   43 am   BACKBONE|DICT|INTERRES
    85   42  106 1    
    86   43   44 2    
    87   43   45 1    
    88   45   46 1    
    89   45   49 1    
    90   45  107 1    
    91   46   47 1    
    92   46  108 1    
    93   46  109 1    
    94   47   48 1    
    95   48  110 1    
    96   48  111 1    
    97   49   50 am   BACKBONE|DICT|INTERRES
    98   49  112 1    
    99   50   51 2    
   100   50   52 1    
   101   52   53 1    
   102   52   54 1    
   103   52  113 1    
   104   53  114 1    
   105   53  115 1    
   106   53  116 1    
   107   54   55 am   BACKBONE|DICT|INTERRES
   108   54  117 1    
   109   55   56 2    
   110   55   57 1    
   111   57   58 1    
   112   57   59 1    
   113   57  118 1    
   114   58  119 1    
   115   58  120 1    
   116   58  121 1    
   117   59   60 am   BACKBONE|DICT|INTERRES
   118   59  122 1    
   119   60   61 2    
   120   60   62 1    
   121   62   63 1    
   122   62   64 1    
   123   62  123 1    
   124   63  124 1    
   125   63  125 1    
   126   63  126 1    
   127   64   65 am   BACKBONE|DICT|INTERRES
   128   64  127 1    
   129   65   66 2    
@<TRIPOS>SUBSTRUCTURE
     1 UNK         1 GROUP             0       ****    0 ROOT    
