@<TRIPOS>MOLECULE
3R134
127   129    1
SMALL
USER_CHARGES


@<TRIPOS>ATOM
      1 CA         30.2095  -43.8747  -49.6229 C.3       0 UNK        -0.1968 
      2 C          31.4966  -44.6784  -49.5086 C.2       0 UNK         0.4852 
      3 O          31.8889  -45.0520  -48.4017 O.2       0 UNK        -0.5359 
      4 N          32.1579  -44.9365  -50.6435 N.am      1 UNK        -0.4300 
      5 CA         33.3789  -45.7425  -50.7469 C.3       1 UNK         0.0863 
      6 C6         34.0518  -45.6006  -52.1359 C.3       11 UNK        -0.0953 
      7 S7         34.4341  -43.8796  -52.5827 S.3       11 UNK        -0.2369 
      8 C8         34.7741  -44.0685  -54.3677 C.3       11 UNK         0.0226 
      9 C9         33.5672  -44.0033  -55.3104 C.ar      11 UNK        -0.0699 
     10 C10        33.7769  -44.3203  -56.6570 C.ar      11 UNK        -0.0804 
     11 C11        32.7530  -44.1802  -57.5969 C.ar      11 UNK        -0.0871 
     12 C12        31.5017  -43.7245  -57.1817 C.ar      11 UNK        -0.1008 
     13 C13        31.2532  -43.4404  -55.8366 C.ar      11 UNK        -0.0735 
     14 C14        32.2911  -43.5803  -54.9062 C.ar      11 UNK        -0.0945 
     15 C15        29.8865  -42.9192  -55.3994 C.3       11 UNK         0.0169 
     16 S16        28.5477  -44.1368  -55.6379 S.3       11 UNK        -0.2669 
     17 C17        28.1074  -43.9086  -57.3970 C.3       11 UNK        -0.0850 
     18 CA         26.5800  -43.9585  -57.6548 C.3       10 UNK         0.0855 
     19 C          26.2527  -43.5835  -59.1304 C.2       10 UNK         0.5543 
     20 N          25.6291  -44.4500  -59.9194 N.am      10 UNK        -0.7343 
     21 O          26.5659  -42.4781  -59.5643 O.2       10 UNK        -0.5027 
     22 N          25.9971  -45.2321  -57.2021 N.am      10 UNK        -0.4495 
     23 C          24.7068  -45.4066  -56.8821 C.2       10 UNK         0.4903 
     24 O          23.8587  -44.5170  -56.9558 O.2       10 UNK        -0.4860 
     25 CA         24.2749  -46.8012  -56.3939 C.3       9 UNK         0.0227 
     26 CB         23.5435  -47.5593  -57.5119 C.3       9 UNK        -0.1964 
     27 N          25.3988  -47.5988  -55.8903 N.am      9 UNK        -0.4231 
     28 C          25.9687  -47.3970  -54.6919 C.2       9 UNK         0.5014 
     29 O          25.5290  -46.5927  -53.8679 O.2       9 UNK        -0.5270 
     30 CA         27.2597  -48.1685  -54.3547 C.3       8 UNK         0.0284 
     31 CB         27.3404  -48.5642  -52.8644 C.3       8 UNK        -0.1977 
     32 N          27.5503  -49.3133  -55.2226 N.am      8 UNK        -0.4342 
     33 C          26.8552  -50.4529  -55.3411 C.2       8 UNK         0.5039 
     34 O          25.8467  -50.7209  -54.6855 O.2       8 UNK        -0.5547 
     35 CA         27.3705  -51.4331  -56.4150 C.3       7 UNK         0.0281 
     36 CB         26.4226  -52.6299  -56.6449 C.3       7 UNK        -0.1963 
     37 N          27.6704  -50.7558  -57.6856 N.am      7 UNK        -0.4444 
     38 C          26.8258  -50.0128  -58.4191 C.2       7 UNK         0.5104 
     39 O          25.6413  -49.8429  -58.1348 O.2       7 UNK        -0.5100 
     40 CA         27.4284  -49.3059  -59.6499 C.3       6 UNK         0.0396 
     41 CB         26.5037  -48.2157  -60.2332 C.3       6 UNK        -0.1801 
     42 N          28.7664  -48.7611  -59.3868 N.am      6 UNK        -0.4747 
     43 C          29.0976  -47.8504  -58.4575 C.2       6 UNK         0.5012 
     44 O          28.2856  -47.2947  -57.7108 O.2       6 UNK        -0.5003 
     45 CA         30.6021  -47.5246  -58.3631 C.3       5 UNK         0.0782 
     46 C46        31.0115  -46.4631  -59.4121 C.3       11 UNK        -0.0868 
     47 S47        32.8223  -46.2311  -59.4762 S.3       11 UNK        -0.2515 
     48 C48        33.0133  -44.4668  -59.0692 C.3       11 UNK         0.0199 
     49 N          31.0245  -47.1537  -57.0102 N.am      5 UNK        -0.4607 
     50 C          30.9758  -47.9591  -55.9440 C.2       4 UNK         0.5031 
     51 O          30.4297  -49.0666  -55.9354 O.2       4 UNK        -0.5119 
     52 CA         31.6644  -47.4347  -54.6735 C.3       4 UNK         0.0263 
     53 CB         30.6463  -46.8026  -53.7152 C.3       4 UNK        -0.1967 
     54 N          32.3945  -48.4890  -53.9665 N.am      4 UNK        -0.4237 
     55 C          33.4692  -49.1332  -54.4441 C.2       3 UNK         0.4908 
     56 O          34.0124  -48.8581  -55.5153 O.2       3 UNK        -0.5102 
     57 CA         34.0512  -50.2359  -53.5447 C.3       3 UNK         0.0241 
     58 CB         35.3708  -50.8255  -54.0794 C.3       3 UNK        -0.1971 
     59 N          34.2685  -49.6904  -52.2068 N.am      3 UNK        -0.4139 
     60 C          33.8691  -50.2472  -51.0573 C.2       2 UNK         0.5016 
     61 O          33.3391  -51.3557  -50.9759 O.2       2 UNK        -0.5319 
     62 CA         34.0768  -49.4128  -49.7774 C.3       2 UNK         0.0286 
     63 CB         35.3604  -49.8501  -49.0534 C.3       2 UNK        -0.1963 
     64 N          34.1257  -47.9628  -50.0155 N.am      2 UNK        -0.4790 
     65 C          33.0936  -47.2321  -50.4623 C.2       1 UNK         0.5024 
     66 O          31.9838  -47.7090  -50.7124 O.2       1 UNK        -0.4888 
     67 H67        29.9925  -43.5942  -50.6536 H         1 UNK         0.0892 
     68 H68        29.3694  -44.4581  -49.2474 H         1 UNK         0.0892 
     69 H69        30.2831  -42.9624  -49.0317 H         1 UNK         0.0892 
     70 H70        31.7900  -44.5958  -51.5182 H         1 UNK         0.3107 
     71 H71        34.0758  -45.3815  -49.9873 H         1 UNK         0.0773 
     72 H72        34.9885  -46.1603  -52.1660 H         1 UNK         0.0680 
     73 H73        33.4231  -46.0214  -52.9184 H         1 UNK         0.0680 
     74 H74        35.4618  -43.2721  -54.6551 H         1 UNK         0.0650 
     75 H75        35.3115  -45.0048  -54.5266 H         1 UNK         0.0650 
     76 H76        34.7553  -44.6463  -56.9839 H         1 UNK         0.1397 
     77 H77        30.7255  -43.5759  -57.9155 H         1 UNK         0.1363 
     78 H78        32.1053  -43.3197  -53.8749 H         1 UNK         0.1355 
     79 H79        29.6560  -41.9964  -55.9330 H         1 UNK         0.0707 
     80 H80        29.9088  -42.6534  -54.3418 H         1 UNK         0.0707 
     81 H81        28.6126  -44.6760  -57.9829 H         1 UNK         0.1034 
     82 H82        28.5046  -42.9507  -57.7364 H         1 UNK         0.1034 
     83 H83        26.1318  -43.1678  -57.0505 H         1 UNK         0.0482 
     84 H84        25.3519  -45.3494  -59.5654 H         1 UNK         0.3460 
     85 H85        25.4188  -44.1907  -60.8700 H         1 UNK         0.3460 
     86 H86        26.6415  -46.0114  -57.1332 H         1 UNK         0.2989 
     87 H87        23.5640  -46.6571  -55.5777 H         1 UNK         0.0559 
     88 H88        23.2415  -48.5551  -57.1870 H         1 UNK         0.0848 
     89 H89        24.1624  -47.6699  -58.4013 H         1 UNK         0.0848 
     90 H90        22.6394  -47.0287  -57.8132 H         1 UNK         0.0848 
     91 H91        25.7876  -48.2966  -56.5135 H         1 UNK         0.3144 
     92 H92        28.0587  -47.4567  -54.5552 H         1 UNK         0.0727 
     93 H93        28.2531  -49.1183  -52.6462 H         1 UNK         0.0790 
     94 H94        26.4943  -49.1838  -52.5659 H         1 UNK         0.0790 
     95 H95        27.3373  -47.6812  -52.2243 H         1 UNK         0.0790 
     96 H96        28.3847  -49.2087  -55.7936 H         1 UNK         0.3215 
     97 H97        28.3165  -51.8269  -56.0395 H         1 UNK         0.0863 
     98 H98        26.8236  -53.3169  -57.3899 H         1 UNK         0.0808 
     99 H99        25.4367  -52.3075  -56.9817 H         1 UNK         0.0808 
    100 H100       26.2810  -53.1973  -55.7243 H         1 UNK         0.0808 
    101 H101       28.6316  -50.8076  -57.9935 H         1 UNK         0.3118 
    102 H102       27.5498  -50.0769  -60.4123 H         1 UNK         0.0546 
    103 H103       26.3136  -47.4201  -59.5133 H         1 UNK         0.0828 
    104 H104       25.5381  -48.6332  -60.5221 H         1 UNK         0.0828 
    105 H105       26.9381  -47.7620  -61.1242 H         1 UNK         0.0828 
    106 H106       29.5045  -49.1515  -59.9575 H         1 UNK         0.3005 
    107 H107       31.1399  -48.4464  -58.5975 H         1 UNK         0.1257 
    108 H108       30.6927  -46.7683  -60.4107 H         1 UNK         0.0775 
    109 H109       30.5132  -45.5133  -59.2198 H         1 UNK         0.0775 
    110 H110       34.0284  -44.1591  -59.3247 H         1 UNK         0.0840 
    111 H111       32.3537  -43.8714  -59.7027 H         1 UNK         0.0840 
    112 H112       31.4640  -46.2477  -56.9234 H         1 UNK         0.2987 
    113 H113       32.3838  -46.6691  -54.9697 H         1 UNK         0.0785 
    114 H114       31.1341  -46.2608  -52.9096 H         1 UNK         0.0798 
    115 H115       30.0052  -47.5548  -53.2592 H         1 UNK         0.0798 
    116 H116       30.0095  -46.0888  -54.2328 H         1 UNK         0.0798 
    117 H117       32.0137  -48.7790  -53.0763 H         1 UNK         0.3079 
    118 H118       33.3071  -51.0347  -53.5128 H         1 UNK         0.0794 
    119 H119       35.2333  -51.2572  -55.0716 H         1 UNK         0.0786 
    120 H120       35.7399  -51.6194  -53.4299 H         1 UNK         0.0786 
    121 H121       36.1501  -50.0663  -54.1563 H         1 UNK         0.0786 
    122 H122       34.6884  -48.7731  -52.1654 H         1 UNK         0.3032 
    123 H123       33.2265  -49.6158  -49.1221 H         1 UNK         0.1094 
    124 H124       35.3418  -50.9196  -48.8384 H         1 UNK         0.0794 
    125 H125       36.2503  -49.6543  -49.6528 H         1 UNK         0.0794 
    126 H126       35.4752  -49.3332  -48.1004 H         1 UNK         0.0794 
    127 H127       35.0075  -47.5041  -49.8318 H         1 UNK         0.3016 
@<TRIPOS>BOND
     1    1    2 1    
     2    1   67 1    
     3    1   68 1    
     4    1   69 1    
     5    2    3 2    
     6    2    4 am   BACKBONE|DICT|INTERRES
     7    4    5 1    
     8    4   70 1    
     9    5    6 1    
    10    5   65 1    
    11    5   71 1    
    12    6    7 1    
    13    6   72 1    
    14    6   73 1    
    15    7    8 1    
    16    8    9 1    
    17    8   74 1    
    18    8   75 1    
    19    9   10 ar   
    20    9   14 ar   
    21   10   11 ar   
    22   10   76 1    
    23   11   12 ar   
    24   11   48 1    
    25   12   13 ar   
    26   12   77 1    
    27   13   14 ar   
    28   13   15 1    
    29   14   78 1    
    30   15   16 1    
    31   15   79 1    
    32   15   80 1    
    33   16   17 1    
    34   17   18 1    
    35   17   81 1    
    36   17   82 1    
    37   18   19 1    
    38   18   22 1    
    39   18   83 1    
    40   19   20 am   BACKBONE|DICT|INTERRES
    41   19   21 2    
    42   20   84 1    
    43   20   85 1    
    44   22   23 am   BACKBONE|DICT|INTERRES
    45   22   86 1    
    46   23   24 2    
    47   23   25 1    
    48   25   26 1    
    49   25   27 1    
    50   25   87 1    
    51   26   88 1    
    52   26   89 1    
    53   26   90 1    
    54   27   28 am   BACKBONE|DICT|INTERRES
    55   27   91 1    
    56   28   29 2    
    57   28   30 1    
    58   30   31 1    
    59   30   32 1    
    60   30   92 1    
    61   31   93 1    
    62   31   94 1    
    63   31   95 1    
    64   32   33 am   BACKBONE|DICT|INTERRES
    65   32   96 1    
    66   33   34 2    
    67   33   35 1    
    68   35   36 1    
    69   35   37 1    
    70   35   97 1    
    71   36   98 1    
    72   36   99 1    
    73   36  100 1    
    74   37   38 am   BACKBONE|DICT|INTERRES
    75   37  101 1    
    76   38   39 2    
    77   38   40 1    
    78   40   41 1    
    79   40   42 1    
    80   40  102 1    
    81   41  103 1    
    82   41  104 1    
    83   41  105 1    
    84   42   43 am   BACKBONE|DICT|INTERRES
    85   42  106 1    
    86   43   44 2    
    87   43   45 1    
    88   45   46 1    
    89   45   49 1    
    90   45  107 1    
    91   46   47 1    
    92   46  108 1    
    93   46  109 1    
    94   47   48 1    
    95   48  110 1    
    96   48  111 1    
    97   49   50 am   BACKBONE|DICT|INTERRES
    98   49  112 1    
    99   50   51 2    
   100   50   52 1    
   101   52   53 1    
   102   52   54 1    
   103   52  113 1    
   104   53  114 1    
   105   53  115 1    
   106   53  116 1    
   107   54   55 am   BACKBONE|DICT|INTERRES
   108   54  117 1    
   109   55   56 2    
   110   55   57 1    
   111   57   58 1    
   112   57   59 1    
   113   57  118 1    
   114   58  119 1    
   115   58  120 1    
   116   58  121 1    
   117   59   60 am   BACKBONE|DICT|INTERRES
   118   59  122 1    
   119   60   61 2    
   120   60   62 1    
   121   62   63 1    
   122   62   64 1    
   123   62  123 1    
   124   63  124 1    
   125   63  125 1    
   126   63  126 1    
   127   64   65 am   BACKBONE|DICT|INTERRES
   128   64  127 1    
   129   65   66 2    
@<TRIPOS>SUBSTRUCTURE
     1 UNK         1 GROUP             0       ****    0 ROOT    
