@<TRIPOS>MOLECULE
3R134
127   129    1
SMALL
USER_CHARGES


@<TRIPOS>ATOM
      1 CA         32.9307  -46.3896  -50.2895 C.3       0 UNK        -0.1968 
      2 C          33.9802  -45.7871  -51.2106 C.2       0 UNK         0.4852 
      3 O          34.5651  -44.7538  -50.8816 O.2       0 UNK        -0.5359 
      4 N          34.2189  -46.4314  -52.3551 N.am      1 UNK        -0.4300 
      5 CA         35.2172  -46.0588  -53.3559 C.3       1 UNK         0.0863 
      6 C6         34.5919  -45.2815  -54.5495 C.3       11 UNK        -0.0953 
      7 S7         33.2033  -46.1414  -55.3757 S.3       11 UNK        -0.2369 
      8 C8         32.3748  -44.7456  -56.2081 C.3       11 UNK         0.0226 
      9 C9         31.4326  -43.8965  -55.3495 C.ar      11 UNK        -0.0699 
     10 C10        31.3209  -44.0239  -53.9565 C.ar      11 UNK        -0.0804 
     11 C11        30.4228  -43.2258  -53.2382 C.ar      11 UNK        -0.0871 
     12 C12        29.6462  -42.2823  -53.9130 C.ar      11 UNK        -0.1008 
     13 C13        29.7386  -42.1494  -55.2982 C.ar      11 UNK        -0.0735 
     14 C14        30.6368  -42.9523  -56.0059 C.ar      11 UNK        -0.0945 
     15 C15        28.8337  -41.1725  -56.0366 C.3       11 UNK         0.0169 
     16 S16        27.0587  -41.5523  -55.8216 S.3       11 UNK        -0.2669 
     17 C17        26.9735  -43.3407  -56.1944 C.3       11 UNK        -0.0850 
     18 CA         26.5572  -43.6625  -57.6486 C.3       10 UNK         0.0855 
     19 C          27.6658  -43.2900  -58.6726 C.2       10 UNK         0.5543 
     20 N          27.4650  -42.2382  -59.4548 N.am      10 UNK        -0.7343 
     21 O          28.7165  -43.9238  -58.7344 O.2       10 UNK        -0.5027 
     22 N          26.1856  -45.0768  -57.7502 N.am      10 UNK        -0.4495 
     23 C          25.5889  -45.6393  -58.8083 C.2       10 UNK         0.4903 
     24 O          25.1690  -45.0059  -59.7784 O.2       10 UNK        -0.4860 
     25 CA         25.4367  -47.1697  -58.7566 C.3       9 UNK         0.0227 
     26 CB         24.9773  -47.7852  -60.0953 C.3       9 UNK        -0.1964 
     27 N          26.6481  -47.8292  -58.2576 N.am      9 UNK        -0.4231 
     28 C          27.8745  -47.8338  -58.8067 C.2       9 UNK         0.5014 
     29 O          28.1511  -47.3006  -59.8817 O.2       9 UNK        -0.5270 
     30 CA         28.9935  -48.5573  -58.0280 C.3       8 UNK         0.0284 
     31 CB         29.9483  -47.5335  -57.3900 C.3       8 UNK        -0.1977 
     32 N          28.4953  -49.4523  -56.9813 N.am      8 UNK        -0.4342 
     33 C          27.8128  -50.5869  -57.1861 C.2       8 UNK         0.5039 
     34 O          27.6236  -51.0869  -58.2951 O.2       8 UNK        -0.5547 
     35 CA         27.1843  -51.2365  -55.9430 C.3       7 UNK         0.0281 
     36 CB         28.1847  -52.1802  -55.2563 C.3       7 UNK        -0.1963 
     37 N          26.6913  -50.2363  -54.9866 N.am      7 UNK        -0.4444 
     38 C          25.6139  -49.4621  -55.1877 C.2       7 UNK         0.5104 
     39 O          24.9057  -49.5297  -56.1911 O.2       7 UNK        -0.5100 
     40 CA         25.2792  -48.4171  -54.1091 C.3       6 UNK         0.0396 
     41 CB         24.3848  -49.0346  -53.0231 C.3       6 UNK        -0.1801 
     42 N          26.4701  -47.8355  -53.4877 N.am      6 UNK        -0.4747 
     43 C          27.2810  -46.9411  -54.0734 C.2       6 UNK         0.5012 
     44 O          27.0872  -46.4738  -55.1978 O.2       6 UNK        -0.5003 
     45 CA         28.5492  -46.5552  -53.2793 C.3       5 UNK         0.0782 
     46 C46        28.2692  -45.3826  -52.3008 C.3       11 UNK        -0.0868 
     47 S47        29.7068  -45.0285  -51.2211 S.3       11 UNK        -0.2515 
     48 C48        30.2733  -43.3740  -51.7312 C.3       11 UNK         0.0199 
     49 N          29.1522  -47.7035  -52.5852 N.am      5 UNK        -0.4607 
     50 C          29.6072  -48.8127  -53.1733 C.2       4 UNK         0.5031 
     51 O          29.4420  -49.0702  -54.3666 O.2       4 UNK        -0.5119 
     52 CA         30.3416  -49.8206  -52.2735 C.3       4 UNK         0.0263 
     53 CB         29.3560  -50.8441  -51.6876 C.3       4 UNK        -0.1967 
     54 N          31.3789  -50.5182  -53.0362 N.am      4 UNK        -0.4237 
     55 C          32.4831  -49.9137  -53.4918 C.2       3 UNK         0.4908 
     56 O          32.8369  -48.7861  -53.1299 O.2       3 UNK        -0.5102 
     57 CA         33.3083  -50.6788  -54.5391 C.3       3 UNK         0.0241 
     58 CB         32.4516  -51.0986  -55.7505 C.3       3 UNK        -0.1971 
     59 N          34.3720  -49.7925  -54.9930 N.am      3 UNK        -0.4139 
     60 C          35.6430  -50.1167  -55.2490 C.2       2 UNK         0.5016 
     61 O          36.0712  -51.2715  -55.2632 O.2       2 UNK        -0.5319 
     62 CA         36.6061  -48.9425  -55.5238 C.3       2 UNK         0.0286 
     63 CB         36.8836  -48.8144  -57.0305 C.3       2 UNK        -0.1963 
     64 N          36.0963  -47.6596  -55.0208 N.am      2 UNK        -0.4790 
     65 C          36.0009  -47.3351  -53.7232 C.2       1 UNK         0.5024 
     66 O          36.4845  -48.0245  -52.8224 O.2       1 UNK        -0.4888 
     67 H67        32.2574  -47.0547  -50.8308 H         1 UNK         0.0892 
     68 H68        33.4112  -46.9588  -49.4945 H         1 UNK         0.0892 
     69 H69        32.3325  -45.6028  -49.8313 H         1 UNK         0.0892 
     70 H70        33.7130  -47.2924  -52.5660 H         1 UNK         0.3107 
     71 H71        35.9594  -45.4028  -52.8964 H         1 UNK         0.0773 
     72 H72        35.3506  -45.0319  -55.2932 H         1 UNK         0.0680 
     73 H73        34.2277  -44.3207  -54.1830 H         1 UNK         0.0680 
     74 H74        31.8021  -45.1579  -57.0395 H         1 UNK         0.0650 
     75 H75        33.1327  -44.0987  -56.6519 H         1 UNK         0.0650 
     76 H76        31.9128  -44.7503  -53.4190 H         1 UNK         0.1397 
     77 H77        28.9434  -41.6671  -53.3674 H         1 UNK         0.1363 
     78 H78        30.7021  -42.8580  -57.0817 H         1 UNK         0.1355 
     79 H79        29.0249  -40.1629  -55.6706 H         1 UNK         0.0707 
     80 H80        29.0665  -41.1585  -57.1023 H         1 UNK         0.0707 
     81 H81        27.9024  -43.8516  -55.9398 H         1 UNK         0.1034 
     82 H82        26.2319  -43.7546  -55.5091 H         1 UNK         0.1034 
     83 H83        25.6601  -43.0829  -57.8765 H         1 UNK         0.0482 
     84 H84        26.6094  -41.7083  -59.4013 H         1 UNK         0.3460 
     85 H85        28.1767  -41.9764  -60.1183 H         1 UNK         0.3460 
     86 H86        26.5155  -45.6748  -56.9996 H         1 UNK         0.2989 
     87 H87        24.6578  -47.3717  -58.0202 H         1 UNK         0.0559 
     88 H88        25.6789  -47.5738  -60.9026 H         1 UNK         0.0848 
     89 H89        24.0081  -47.3856  -60.3960 H         1 UNK         0.0848 
     90 H90        24.8711  -48.8672  -60.0174 H         1 UNK         0.0848 
     91 H91        26.5376  -48.3132  -57.3769 H         1 UNK         0.3144 
     92 H92        29.5579  -49.1575  -58.7443 H         1 UNK         0.0727 
     93 H93        29.4355  -46.8991  -56.6660 H         1 UNK         0.0790 
     94 H94        30.3772  -46.8773  -58.1483 H         1 UNK         0.0790 
     95 H95        30.7766  -48.0224  -56.8765 H         1 UNK         0.0790 
     96 H96        28.6901  -49.1795  -56.0181 H         1 UNK         0.3215 
     97 H97        26.3319  -51.8328  -56.2766 H         1 UNK         0.0863 
     98 H98        27.7389  -52.6723  -54.3920 H         1 UNK         0.0808 
     99 H99        29.0794  -51.6537  -54.9252 H         1 UNK         0.0808 
    100 H100       28.5084  -52.9642  -55.9422 H         1 UNK         0.0808 
    101 H101       27.2580  -50.0689  -54.1685 H         1 UNK         0.3118 
    102 H102       24.7182  -47.6127  -54.5903 H         1 UNK         0.0546 
    103 H103       24.8905  -49.8395  -52.4883 H         1 UNK         0.0828 
    104 H104       23.4768  -49.4539  -53.4587 H         1 UNK         0.0828 
    105 H105       24.0751  -48.2877  -52.2920 H         1 UNK         0.0828 
    106 H106       26.7126  -48.1630  -52.5636 H         1 UNK         0.3005 
    107 H107       29.2822  -46.2118  -54.0135 H         1 UNK         0.1257 
    108 H108       27.4260  -45.6205  -51.6496 H         1 UNK         0.0775 
    109 H109       27.9806  -44.4843  -52.8492 H         1 UNK         0.0775 
    110 H110       29.5764  -42.6340  -51.3344 H         1 UNK         0.0840 
    111 H111       31.2349  -43.1708  -51.2575 H         1 UNK         0.0840 
    112 H112       29.3283  -47.5626  -51.6007 H         1 UNK         0.2987 
    113 H113       30.8183  -49.2816  -51.4518 H         1 UNK         0.0785 
    114 H114       28.5882  -50.3508  -51.0902 H         1 UNK         0.0798 
    115 H115       29.8650  -51.5524  -51.0335 H         1 UNK         0.0798 
    116 H116       28.8473  -51.4141  -52.4646 H         1 UNK         0.0798 
    117 H117       31.1454  -51.4350  -53.3862 H         1 UNK         0.3079 
    118 H118       33.7357  -51.5612  -54.0584 H         1 UNK         0.0794 
    119 H119       31.7042  -51.8428  -55.4745 H         1 UNK         0.0786 
    120 H120       33.0663  -51.5413  -56.5345 H         1 UNK         0.0786 
    121 H121       31.9221  -50.2480  -56.1827 H         1 UNK         0.0786 
    122 H122       34.1366  -48.8100  -54.9329 H         1 UNK         0.3032 
    123 H123       37.5468  -49.1666  -55.0154 H         1 UNK         0.1094 
    124 H124       37.6117  -48.0291  -57.2350 H         1 UNK         0.0794 
    125 H125       37.2905  -49.7436  -57.4323 H         1 UNK         0.0794 
    126 H126       35.9758  -48.5871  -57.5910 H         1 UNK         0.0794 
    127 H127       35.6620  -47.0457  -55.6971 H         1 UNK         0.3016 
@<TRIPOS>BOND
     1    1    2 1    
     2    1   67 1    
     3    1   68 1    
     4    1   69 1    
     5    2    3 2    
     6    2    4 am   BACKBONE|DICT|INTERRES
     7    4    5 1    
     8    4   70 1    
     9    5    6 1    
    10    5   65 1    
    11    5   71 1    
    12    6    7 1    
    13    6   72 1    
    14    6   73 1    
    15    7    8 1    
    16    8    9 1    
    17    8   74 1    
    18    8   75 1    
    19    9   10 ar   
    20    9   14 ar   
    21   10   11 ar   
    22   10   76 1    
    23   11   12 ar   
    24   11   48 1    
    25   12   13 ar   
    26   12   77 1    
    27   13   14 ar   
    28   13   15 1    
    29   14   78 1    
    30   15   16 1    
    31   15   79 1    
    32   15   80 1    
    33   16   17 1    
    34   17   18 1    
    35   17   81 1    
    36   17   82 1    
    37   18   19 1    
    38   18   22 1    
    39   18   83 1    
    40   19   20 am   BACKBONE|DICT|INTERRES
    41   19   21 2    
    42   20   84 1    
    43   20   85 1    
    44   22   23 am   BACKBONE|DICT|INTERRES
    45   22   86 1    
    46   23   24 2    
    47   23   25 1    
    48   25   26 1    
    49   25   27 1    
    50   25   87 1    
    51   26   88 1    
    52   26   89 1    
    53   26   90 1    
    54   27   28 am   BACKBONE|DICT|INTERRES
    55   27   91 1    
    56   28   29 2    
    57   28   30 1    
    58   30   31 1    
    59   30   32 1    
    60   30   92 1    
    61   31   93 1    
    62   31   94 1    
    63   31   95 1    
    64   32   33 am   BACKBONE|DICT|INTERRES
    65   32   96 1    
    66   33   34 2    
    67   33   35 1    
    68   35   36 1    
    69   35   37 1    
    70   35   97 1    
    71   36   98 1    
    72   36   99 1    
    73   36  100 1    
    74   37   38 am   BACKBONE|DICT|INTERRES
    75   37  101 1    
    76   38   39 2    
    77   38   40 1    
    78   40   41 1    
    79   40   42 1    
    80   40  102 1    
    81   41  103 1    
    82   41  104 1    
    83   41  105 1    
    84   42   43 am   BACKBONE|DICT|INTERRES
    85   42  106 1    
    86   43   44 2    
    87   43   45 1    
    88   45   46 1    
    89   45   49 1    
    90   45  107 1    
    91   46   47 1    
    92   46  108 1    
    93   46  109 1    
    94   47   48 1    
    95   48  110 1    
    96   48  111 1    
    97   49   50 am   BACKBONE|DICT|INTERRES
    98   49  112 1    
    99   50   51 2    
   100   50   52 1    
   101   52   53 1    
   102   52   54 1    
   103   52  113 1    
   104   53  114 1    
   105   53  115 1    
   106   53  116 1    
   107   54   55 am   BACKBONE|DICT|INTERRES
   108   54  117 1    
   109   55   56 2    
   110   55   57 1    
   111   57   58 1    
   112   57   59 1    
   113   57  118 1    
   114   58  119 1    
   115   58  120 1    
   116   58  121 1    
   117   59   60 am   BACKBONE|DICT|INTERRES
   118   59  122 1    
   119   60   61 2    
   120   60   62 1    
   121   62   63 1    
   122   62   64 1    
   123   62  123 1    
   124   63  124 1    
   125   63  125 1    
   126   63  126 1    
   127   64   65 am   BACKBONE|DICT|INTERRES
   128   64  127 1    
   129   65   66 2    
@<TRIPOS>SUBSTRUCTURE
     1 UNK         1 GROUP             0       ****    0 ROOT    
