@<TRIPOS>MOLECULE
3R134
127   129    1
SMALL
USER_CHARGES


@<TRIPOS>ATOM
      1 CA         32.2253  -50.4340  -56.2230 C.3       0 UNK        -0.1968 
      2 C          32.5073  -49.2188  -55.3542 C.2       0 UNK         0.4852 
      3 O          31.8661  -49.0496  -54.3134 O.2       0 UNK        -0.5359 
      4 N          33.4594  -48.3757  -55.7788 N.am      1 UNK        -0.4300 
      5 CA         33.8830  -47.1396  -55.1085 C.3       1 UNK         0.0863 
      6 C6         34.9601  -46.3681  -55.9127 C.3       11 UNK        -0.0953 
      7 S7         34.4307  -45.9459  -57.6032 S.3       11 UNK        -0.2369 
      8 C8         34.1255  -44.1603  -57.4519 C.3       11 UNK         0.0226 
      9 C9         32.8072  -43.8710  -56.7514 C.ar      11 UNK        -0.0699 
     10 C10        32.7787  -43.4874  -55.4070 C.ar      11 UNK        -0.0804 
     11 C11        31.5657  -43.1694  -54.7877 C.ar      11 UNK        -0.0871 
     12 C12        30.3778  -43.2438  -55.5243 C.ar      11 UNK        -0.1008 
     13 C13        30.3908  -43.6514  -56.8623 C.ar      11 UNK        -0.0735 
     14 C14        31.6119  -43.9559  -57.4690 C.ar      11 UNK        -0.0945 
     15 C15        29.1026  -43.7244  -57.6739 C.3       11 UNK         0.0169 
     16 S16        27.9579  -44.9977  -57.0500 S.3       11 UNK        -0.2669 
     17 C17        26.8691  -44.0091  -55.9600 C.3       11 UNK        -0.0850 
     18 CA         25.4485  -44.6099  -55.7825 C.3       10 UNK         0.0855 
     19 C          24.5915  -43.7045  -54.8480 C.2       10 UNK         0.5543 
     20 N          23.5305  -43.0679  -55.3289 N.am      10 UNK        -0.7343 
     21 O          24.8989  -43.5742  -53.6661 O.2       10 UNK        -0.5027 
     22 N          24.8354  -44.9443  -57.0788 N.am      10 UNK        -0.4495 
     23 C          23.7500  -45.7092  -57.2584 C.2       10 UNK         0.4903 
     24 O          23.0614  -46.1629  -56.3444 O.2       10 UNK        -0.4860 
     25 CA         23.3915  -46.0536  -58.7167 C.3       9 UNK         0.0227 
     26 CB         22.4707  -44.9778  -59.3152 C.3       9 UNK        -0.1964 
     27 N          24.5736  -46.2226  -59.5717 N.am      9 UNK        -0.4231 
     28 C          25.4916  -47.1876  -59.4142 C.2       9 UNK         0.5014 
     29 O          25.3910  -48.0900  -58.5798 O.2       9 UNK        -0.5270 
     30 CA         26.7419  -47.1373  -60.3072 C.3       8 UNK         0.0284 
     31 CB         26.9558  -45.7943  -61.0377 C.3       8 UNK        -0.1977 
     32 N          27.8933  -47.4137  -59.4561 N.am      8 UNK        -0.4342 
     33 C          28.9318  -48.2005  -59.7512 C.2       8 UNK         0.5039 
     34 O          29.0913  -48.7534  -60.8404 O.2       8 UNK        -0.5547 
     35 CA         29.9781  -48.4013  -58.6393 C.3       7 UNK         0.0281 
     36 CB         31.1537  -47.4350  -58.8405 C.3       7 UNK        -0.1963 
     37 N          29.4287  -48.2097  -57.2924 N.am      7 UNK        -0.4444 
     38 C          28.6299  -49.0850  -56.6657 C.2       7 UNK         0.5104 
     39 O          28.3194  -50.1795  -57.1370 O.2       7 UNK        -0.5100 
     40 CA         28.1198  -48.6703  -55.2759 C.3       6 UNK         0.0396 
     41 CB         27.6484  -49.8662  -54.4276 C.3       6 UNK        -0.1801 
     42 N          29.1585  -47.9464  -54.5439 N.am      6 UNK        -0.4747 
     43 C          28.9768  -46.8151  -53.8515 C.2       6 UNK         0.5012 
     44 O          27.8950  -46.2364  -53.7487 O.2       6 UNK        -0.5003 
     45 CA         30.2229  -46.2999  -53.1014 C.3       5 UNK         0.0782 
     46 C46        30.0225  -44.9094  -52.4373 C.3       11 UNK        -0.0868 
     47 S47        31.6219  -44.0839  -52.1502 S.3       11 UNK        -0.2515 
     48 C48        31.5458  -42.7017  -53.3371 C.3       11 UNK         0.0199 
     49 N          30.7058  -47.3463  -52.1846 N.am      5 UNK        -0.4607 
     50 C          30.0061  -47.8761  -51.1677 C.2       4 UNK         0.5031 
     51 O          28.9670  -47.3799  -50.7308 O.2       4 UNK        -0.5119 
     52 CA         30.4881  -49.2000  -50.5491 C.3       4 UNK         0.0263 
     53 CB         29.3109  -50.1932  -50.4056 C.3       4 UNK        -0.1967 
     54 N          31.5836  -49.8382  -51.2886 N.am      4 UNK        -0.4237 
     55 C          32.3784  -50.7794  -50.7577 C.2       3 UNK         0.4908 
     56 O          32.3090  -51.1617  -49.5884 O.2       3 UNK        -0.5102 
     57 CA         33.4329  -51.4029  -51.6822 C.3       3 UNK         0.0241 
     58 CB         32.7789  -52.2321  -52.8013 C.3       3 UNK        -0.1971 
     59 N          34.3197  -50.3907  -52.2518 N.am      3 UNK        -0.4139 
     60 C          35.2378  -49.7035  -51.5557 C.2       2 UNK         0.5016 
     61 O          35.4659  -49.8787  -50.3582 O.2       2 UNK        -0.5319 
     62 CA         36.0592  -48.6534  -52.3231 C.3       2 UNK         0.0286 
     63 CB         37.4752  -49.1806  -52.6090 C.3       2 UNK        -0.1963 
     64 N          35.4401  -48.2444  -53.5863 N.am      2 UNK        -0.4790 
     65 C          34.3899  -47.4170  -53.6820 C.2       1 UNK         0.5024 
     66 O          33.8130  -46.9233  -52.7144 O.2       1 UNK        -0.4888 
     67 H67        32.4771  -50.2470  -57.2667 H         1 UNK         0.0892 
     68 H68        32.8058  -51.2882  -55.8766 H         1 UNK         0.0892 
     69 H69        31.1698  -50.6991  -56.1749 H         1 UNK         0.0892 
     70 H70        33.9374  -48.5723  -56.6468 H         1 UNK         0.3107 
     71 H71        33.0039  -46.4986  -55.0258 H         1 UNK         0.0773 
     72 H72        35.8741  -46.9576  -56.0041 H         1 UNK         0.0680 
     73 H73        35.2469  -45.4554  -55.3871 H         1 UNK         0.0680 
     74 H74        34.1038  -43.7266  -58.4528 H         1 UNK         0.0650 
     75 H75        34.9580  -43.6806  -56.9351 H         1 UNK         0.0650 
     76 H76        33.7007  -43.4177  -54.8462 H         1 UNK         0.1397 
     77 H77        29.4414  -42.9756  -55.0582 H         1 UNK         0.1363 
     78 H78        31.6411  -44.2439  -58.5106 H         1 UNK         0.1355 
     79 H79        28.6246  -42.7446  -57.6900 H         1 UNK         0.0707 
     80 H80        29.3256  -43.9619  -58.7153 H         1 UNK         0.0707 
     81 H81        27.3545  -43.9204  -54.9871 H         1 UNK         0.1034 
     82 H82        26.7911  -42.9945  -56.3542 H         1 UNK         0.1034 
     83 H83        25.5652  -45.5561  -55.2504 H         1 UNK         0.0482 
     84 H84        23.2679  -43.1757  -56.2951 H         1 UNK         0.3460 
     85 H85        22.9820  -42.4854  -54.7161 H         1 UNK         0.3460 
     86 H86        25.3373  -44.6231  -57.8921 H         1 UNK         0.2989 
     87 H87        22.8475  -47.0005  -58.7085 H         1 UNK         0.0559 
     88 H88        22.9641  -44.0070  -59.3761 H         1 UNK         0.0848 
     89 H89        21.5746  -44.8497  -58.7060 H         1 UNK         0.0848 
     90 H90        22.1402  -45.2505  -60.3177 H         1 UNK         0.0848 
     91 H91        24.7243  -45.5280  -60.2892 H         1 UNK         0.3144 
     92 H92        26.6303  -47.9300  -61.0498 H         1 UNK         0.0727 
     93 H93        27.8796  -45.8107  -61.6165 H         1 UNK         0.0790 
     94 H94        27.0227  -44.9574  -60.3409 H         1 UNK         0.0790 
     95 H95        26.1490  -45.5876  -61.7418 H         1 UNK         0.0790 
     96 H96        27.8314  -47.0437  -58.5164 H         1 UNK         0.3215 
     97 H97        30.3539  -49.4238  -58.7174 H         1 UNK         0.0863 
     98 H98        31.9115  -47.5601  -58.0689 H         1 UNK         0.0808 
     99 H99        30.8217  -46.3977  -58.8219 H         1 UNK         0.0808 
    100 H100       31.6389  -47.6041  -59.8027 H         1 UNK         0.0808 
    101 H101       29.6230  -47.3299  -56.8347 H         1 UNK         0.3118 
    102 H102       27.2626  -48.0172  -55.4538 H         1 UNK         0.0546 
    103 H103       28.4573  -50.5764  -54.2518 H         1 UNK         0.0828 
    104 H104       26.8385  -50.4044  -54.9214 H         1 UNK         0.0828 
    105 H105       27.2735  -49.5387  -53.4577 H         1 UNK         0.0828 
    106 H106       30.0809  -48.3774  -54.5316 H         1 UNK         0.3005 
    107 H107       30.9850  -46.1835  -53.8728 H         1 UNK         0.1257 
    108 H108       29.4907  -44.9883  -51.4893 H         1 UNK         0.0775 
    109 H109       29.4051  -44.2602  -53.0583 H         1 UNK         0.0775 
    110 H110       30.6563  -42.1017  -53.1380 H         1 UNK         0.0840 
    111 H111       32.3962  -42.0419  -53.1583 H         1 UNK         0.0840 
    112 H112       31.5832  -47.7681  -52.4585 H         1 UNK         0.2987 
    113 H113       30.8505  -48.9455  -49.5508 H         1 UNK         0.0785 
    114 H114       29.6074  -51.1048  -49.8874 H         1 UNK         0.0798 
    115 H115       28.9109  -50.4780  -51.3794 H         1 UNK         0.0798 
    116 H116       28.4914  -49.7614  -49.8297 H         1 UNK         0.0798 
    117 H117       31.6840  -49.6013  -52.2700 H         1 UNK         0.3079 
    118 H118       34.0434  -52.0809  -51.0813 H         1 UNK         0.0794 
    119 H119       32.1248  -51.6315  -53.4327 H         1 UNK         0.0786 
    120 H120       32.1705  -53.0339  -52.3808 H         1 UNK         0.0786 
    121 H121       33.5286  -52.6986  -53.4405 H         1 UNK         0.0786 
    122 H122       34.1977  -50.1642  -53.2268 H         1 UNK         0.3032 
    123 H123       36.1434  -47.7759  -51.6772 H         1 UNK         0.1094 
    124 H124       38.0920  -48.4216  -53.0907 H         1 UNK         0.0794 
    125 H125       37.9798  -49.4651  -51.6844 H         1 UNK         0.0794 
    126 H126       37.4576  -50.0602  -53.2537 H         1 UNK         0.0794 
    127 H127       35.8446  -48.6174  -54.4335 H         1 UNK         0.3016 
@<TRIPOS>BOND
     1    1    2 1    
     2    1   67 1    
     3    1   68 1    
     4    1   69 1    
     5    2    3 2    
     6    2    4 am   BACKBONE|DICT|INTERRES
     7    4    5 1    
     8    4   70 1    
     9    5    6 1    
    10    5   65 1    
    11    5   71 1    
    12    6    7 1    
    13    6   72 1    
    14    6   73 1    
    15    7    8 1    
    16    8    9 1    
    17    8   74 1    
    18    8   75 1    
    19    9   10 ar   
    20    9   14 ar   
    21   10   11 ar   
    22   10   76 1    
    23   11   12 ar   
    24   11   48 1    
    25   12   13 ar   
    26   12   77 1    
    27   13   14 ar   
    28   13   15 1    
    29   14   78 1    
    30   15   16 1    
    31   15   79 1    
    32   15   80 1    
    33   16   17 1    
    34   17   18 1    
    35   17   81 1    
    36   17   82 1    
    37   18   19 1    
    38   18   22 1    
    39   18   83 1    
    40   19   20 am   BACKBONE|DICT|INTERRES
    41   19   21 2    
    42   20   84 1    
    43   20   85 1    
    44   22   23 am   BACKBONE|DICT|INTERRES
    45   22   86 1    
    46   23   24 2    
    47   23   25 1    
    48   25   26 1    
    49   25   27 1    
    50   25   87 1    
    51   26   88 1    
    52   26   89 1    
    53   26   90 1    
    54   27   28 am   BACKBONE|DICT|INTERRES
    55   27   91 1    
    56   28   29 2    
    57   28   30 1    
    58   30   31 1    
    59   30   32 1    
    60   30   92 1    
    61   31   93 1    
    62   31   94 1    
    63   31   95 1    
    64   32   33 am   BACKBONE|DICT|INTERRES
    65   32   96 1    
    66   33   34 2    
    67   33   35 1    
    68   35   36 1    
    69   35   37 1    
    70   35   97 1    
    71   36   98 1    
    72   36   99 1    
    73   36  100 1    
    74   37   38 am   BACKBONE|DICT|INTERRES
    75   37  101 1    
    76   38   39 2    
    77   38   40 1    
    78   40   41 1    
    79   40   42 1    
    80   40  102 1    
    81   41  103 1    
    82   41  104 1    
    83   41  105 1    
    84   42   43 am   BACKBONE|DICT|INTERRES
    85   42  106 1    
    86   43   44 2    
    87   43   45 1    
    88   45   46 1    
    89   45   49 1    
    90   45  107 1    
    91   46   47 1    
    92   46  108 1    
    93   46  109 1    
    94   47   48 1    
    95   48  110 1    
    96   48  111 1    
    97   49   50 am   BACKBONE|DICT|INTERRES
    98   49  112 1    
    99   50   51 2    
   100   50   52 1    
   101   52   53 1    
   102   52   54 1    
   103   52  113 1    
   104   53  114 1    
   105   53  115 1    
   106   53  116 1    
   107   54   55 am   BACKBONE|DICT|INTERRES
   108   54  117 1    
   109   55   56 2    
   110   55   57 1    
   111   57   58 1    
   112   57   59 1    
   113   57  118 1    
   114   58  119 1    
   115   58  120 1    
   116   58  121 1    
   117   59   60 am   BACKBONE|DICT|INTERRES
   118   59  122 1    
   119   60   61 2    
   120   60   62 1    
   121   62   63 1    
   122   62   64 1    
   123   62  123 1    
   124   63  124 1    
   125   63  125 1    
   126   63  126 1    
   127   64   65 am   BACKBONE|DICT|INTERRES
   128   64  127 1    
   129   65   66 2    
@<TRIPOS>SUBSTRUCTURE
     1 UNK         1 GROUP             0       ****    0 ROOT    
