@<TRIPOS>MOLECULE
3R134
127   129    1
SMALL
USER_CHARGES


@<TRIPOS>ATOM
      1 CA         32.3474  -49.6193  -57.8018 C.3       0 UNK        -0.1968 
      2 C          32.8092  -48.7880  -56.6161 C.2       0 UNK         0.4852 
      3 O          32.6635  -49.2157  -55.4691 O.2       0 UNK        -0.5359 
      4 N          33.3822  -47.6060  -56.8809 N.am      1 UNK        -0.4300 
      5 CA         33.9590  -46.7119  -55.8719 C.3       1 UNK         0.0863 
      6 C6         34.5006  -45.4012  -56.4857 C.3       11 UNK        -0.0953 
      7 S7         33.2012  -44.4115  -57.2987 S.3       11 UNK        -0.2369 
      8 C8         33.0350  -42.9895  -56.1722 C.3       11 UNK         0.0226 
      9 C9         31.8506  -43.1329  -55.2257 C.ar      11 UNK        -0.0699 
     10 C10        31.9415  -43.9221  -54.0734 C.ar      11 UNK        -0.0804 
     11 C11        30.8694  -44.0132  -53.1762 C.ar      11 UNK        -0.0871 
     12 C12        29.7151  -43.2640  -53.4343 C.ar      11 UNK        -0.1008 
     13 C13        29.5948  -42.5010  -54.5978 C.ar      11 UNK        -0.0735 
     14 C14        30.6656  -42.4417  -55.4918 C.ar      11 UNK        -0.0945 
     15 C15        28.3057  -41.7456  -54.8873 C.3       11 UNK         0.0169 
     16 S16        26.8747  -42.8706  -54.8762 S.3       11 UNK        -0.2669 
     17 C17        25.7330  -42.0518  -56.0434 C.3       11 UNK        -0.0850 
     18 CA         25.7833  -42.6501  -57.4776 C.3       10 UNK         0.0855 
     19 C          26.9434  -42.0579  -58.3337 C.2       10 UNK         0.5543 
     20 N          27.8071  -42.8541  -58.9526 N.am      10 UNK        -0.7343 
     21 O          27.0537  -40.8399  -58.4507 O.2       10 UNK        -0.5027 
     22 N          25.7302  -44.1180  -57.4390 N.am      10 UNK        -0.4495 
     23 C          25.2703  -44.9141  -58.4069 C.2       10 UNK         0.4903 
     24 O          24.7320  -44.5061  -59.4375 O.2       10 UNK        -0.4860 
     25 CA         25.4694  -46.4226  -58.1681 C.3       9 UNK         0.0227 
     26 CB         25.1529  -47.2758  -59.4138 C.3       9 UNK        -0.1964 
     27 N          26.8048  -46.7519  -57.6508 N.am      9 UNK        -0.4231 
     28 C          27.9924  -46.4893  -58.2215 C.2       9 UNK         0.5014 
     29 O          28.1346  -45.8067  -59.2365 O.2       9 UNK        -0.5270 
     30 CA         29.2382  -47.1048  -57.5548 C.3       8 UNK         0.0284 
     31 CB         29.8676  -46.1034  -56.5722 C.3       8 UNK        -0.1977 
     32 N          28.9572  -48.3716  -56.8686 N.am      8 UNK        -0.4342 
     33 C          28.5232  -49.4922  -57.4687 C.2       8 UNK         0.5039 
     34 O          28.4213  -49.6225  -58.6887 O.2       8 UNK        -0.5547 
     35 CA         28.0981  -50.6531  -56.5555 C.3       7 UNK         0.0281 
     36 CB         29.2939  -51.5550  -56.2046 C.3       7 UNK        -0.1963 
     37 N          27.4554  -50.1666  -55.3321 N.am      7 UNK        -0.4444 
     38 C          26.1838  -49.7437  -55.2643 C.2       7 UNK         0.5104 
     39 O          25.3954  -49.7916  -56.2080 O.2       7 UNK        -0.5100 
     40 CA         25.7120  -49.1441  -53.9255 C.3       6 UNK         0.0396 
     41 CB         25.1226  -50.2413  -53.0253 C.3       6 UNK        -0.1801 
     42 N          26.7744  -48.4407  -53.2020 N.am      6 UNK        -0.4747 
     43 C          27.3593  -47.3056  -53.6162 C.2       6 UNK         0.5012 
     44 O          27.0010  -46.6882  -54.6192 O.2       6 UNK        -0.5003 
     45 CA         28.5965  -46.8277  -52.8193 C.3       5 UNK         0.0782 
     46 C46        28.1963  -45.8002  -51.7352 C.3       11 UNK        -0.0868 
     47 S47        29.5745  -45.0147  -50.8101 S.3       11 UNK        -0.2515 
     48 C48        31.0087  -44.9311  -51.9558 C.3       11 UNK         0.0199 
     49 N          29.3555  -47.9521  -52.2518 N.am      5 UNK        -0.4607 
     50 C          29.9675  -48.8825  -52.9917 C.2       4 UNK         0.5031 
     51 O          29.9636  -48.8708  -54.2221 O.2       4 UNK        -0.5119 
     52 CA         30.5904  -50.0655  -52.2505 C.3       4 UNK         0.0263 
     53 CB         29.5891  -51.2383  -52.2047 C.3       4 UNK        -0.1967 
     54 N          31.8275  -50.4528  -52.9258 N.am      4 UNK        -0.4237 
     55 C          32.7425  -51.3004  -52.4329 C.2       3 UNK         0.4908 
     56 O          32.6139  -51.9138  -51.3726 O.2       3 UNK        -0.5102 
     57 CA         34.0522  -51.4418  -53.2197 C.3       3 UNK         0.0241 
     58 CB         33.8405  -52.1659  -54.5616 C.3       3 UNK        -0.1971 
     59 N          34.6322  -50.1130  -53.4248 N.am      3 UNK        -0.4139 
     60 C          35.4860  -49.5303  -52.5677 C.2       2 UNK         0.5016 
     61 O          36.0003  -50.1262  -51.6197 O.2       2 UNK        -0.5319 
     62 CA         35.7960  -48.0273  -52.7317 C.3       2 UNK         0.0286 
     63 CB         37.3055  -47.7654  -52.9228 C.3       2 UNK        -0.1963 
     64 N          34.9809  -47.3381  -53.7424 N.am      2 UNK        -0.4790 
     65 C          35.0684  -47.4289  -55.0761 C.2       1 UNK         0.5024 
     66 O          35.9371  -48.0636  -55.6776 O.2       1 UNK        -0.4888 
     67 H67        33.0466  -50.4356  -57.9793 H         1 UNK         0.0892 
     68 H68        31.3695  -50.0499  -57.6016 H         1 UNK         0.0892 
     69 H69        32.2732  -49.0233  -58.7112 H         1 UNK         0.0892 
     70 H70        33.4885  -47.3041  -57.8382 H         1 UNK         0.3107 
     71 H71        33.1500  -46.4607  -55.1835 H         1 UNK         0.0773 
     72 H72        34.9938  -44.7979  -55.7219 H         1 UNK         0.0680 
     73 H73        35.2686  -45.6201  -57.2301 H         1 UNK         0.0680 
     74 H74        32.9140  -42.0929  -56.7819 H         1 UNK         0.0650 
     75 H75        33.9504  -42.8298  -55.6018 H         1 UNK         0.0650 
     76 H76        32.8558  -44.4616  -53.8723 H         1 UNK         0.1397 
     77 H77        28.8821  -43.2757  -52.7495 H         1 UNK         0.1363 
     78 H78        30.5831  -41.8441  -56.3894 H         1 UNK         0.1355 
     79 H79        28.3714  -41.2414  -55.8522 H         1 UNK         0.0707 
     80 H80        28.1604  -40.9676  -54.1369 H         1 UNK         0.0707 
     81 H81        24.7255  -42.1810  -55.6454 H         1 UNK         0.1034 
     82 H82        25.8997  -40.9728  -56.0458 H         1 UNK         0.1034 
     83 H83        24.8758  -42.3128  -57.9819 H         1 UNK         0.0482 
     84 H84        27.7242  -43.8636  -58.9091 H         1 UNK         0.3460 
     85 H85        28.5411  -42.4409  -59.5043 H         1 UNK         0.3460 
     86 H86        26.1739  -44.5393  -56.6338 H         1 UNK         0.2989 
     87 H87        24.7630  -46.7055  -57.3864 H         1 UNK         0.0559 
     88 H88        24.1238  -47.1250  -59.7421 H         1 UNK         0.0848 
     89 H89        25.2737  -48.3390  -59.2045 H         1 UNK         0.0848 
     90 H90        25.8035  -47.0237  -60.2520 H         1 UNK         0.0848 
     91 H91        26.8219  -47.2290  -56.7571 H         1 UNK         0.3144 
     92 H92        29.9666  -47.3158  -58.3402 H         1 UNK         0.0727 
     93 H93        29.1490  -45.7457  -55.8359 H         1 UNK         0.0790 
     94 H94        30.2350  -45.2244  -57.1030 H         1 UNK         0.0790 
     95 H95        30.7126  -46.5354  -56.0367 H         1 UNK         0.0790 
     96 H96        29.1291  -48.4029  -55.8666 H         1 UNK         0.3215 
     97 H97        27.3764  -51.2594  -57.1080 H         1 UNK         0.0863 
     98 H98        30.0753  -51.0170  -55.6676 H         1 UNK         0.0808 
     99 H99        29.7467  -51.9642  -57.1085 H         1 UNK         0.0808 
    100 H100       28.9852  -52.4006  -55.5902 H         1 UNK         0.0808 
    101 H101       28.0558  -50.0306  -54.5313 H         1 UNK         0.3118 
    102 H102       24.9214  -48.4235  -54.1462 H         1 UNK         0.0546 
    103 H103       25.8696  -50.9878  -52.7524 H         1 UNK         0.0828 
    104 H104       24.3099  -50.7646  -53.5312 H         1 UNK         0.0828 
    105 H105       24.7123  -49.8234  -52.1060 H         1 UNK         0.0828 
    106 H106       27.1206  -48.8767  -52.3598 H         1 UNK         0.3005 
    107 H107       29.2375  -46.3284  -53.5471 H         1 UNK         0.1257 
    108 H108       27.5971  -45.0033  -52.1792 H         1 UNK         0.0775 
    109 H109       27.5423  -46.2727  -50.9999 H         1 UNK         0.0775 
    110 H110       31.8634  -44.5831  -51.3741 H         1 UNK         0.0840 
    111 H111       31.2680  -45.9370  -52.2863 H         1 UNK         0.0840 
    112 H112       29.3830  -48.0134  -51.2439 H         1 UNK         0.2987 
    113 H113       30.8346  -49.7541  -51.2328 H         1 UNK         0.0785 
    114 H114       28.6381  -50.9302  -51.7686 H         1 UNK         0.0798 
    115 H115       29.9614  -52.0623  -51.5966 H         1 UNK         0.0798 
    116 H116       29.3824  -51.6305  -53.2004 H         1 UNK         0.0798 
    117 H117       31.9972  -49.9835  -53.8165 H         1 UNK         0.3079 
    118 H118       34.7377  -52.0536  -52.6289 H         1 UNK         0.0794 
    119 H119       34.7629  -52.2018  -55.1413 H         1 UNK         0.0786 
    120 H120       33.0763  -51.6955  -55.1787 H         1 UNK         0.0786 
    121 H121       33.5230  -53.1957  -54.3940 H         1 UNK         0.0786 
    122 H122       34.2240  -49.5597  -54.1708 H         1 UNK         0.3032 
    123 H123       35.5147  -47.5731  -51.7798 H         1 UNK         0.1094 
    124 H124       37.8718  -48.1215  -52.0613 H         1 UNK         0.0794 
    125 H125       37.7043  -48.2780  -53.7982 H         1 UNK         0.0794 
    126 H126       37.5155  -46.7012  -53.0289 H         1 UNK         0.0794 
    127 H127       34.2154  -46.7997  -53.3611 H         1 UNK         0.3016 
@<TRIPOS>BOND
     1    1    2 1    
     2    1   67 1    
     3    1   68 1    
     4    1   69 1    
     5    2    3 2    
     6    2    4 am   BACKBONE|DICT|INTERRES
     7    4    5 1    
     8    4   70 1    
     9    5    6 1    
    10    5   65 1    
    11    5   71 1    
    12    6    7 1    
    13    6   72 1    
    14    6   73 1    
    15    7    8 1    
    16    8    9 1    
    17    8   74 1    
    18    8   75 1    
    19    9   10 ar   
    20    9   14 ar   
    21   10   11 ar   
    22   10   76 1    
    23   11   12 ar   
    24   11   48 1    
    25   12   13 ar   
    26   12   77 1    
    27   13   14 ar   
    28   13   15 1    
    29   14   78 1    
    30   15   16 1    
    31   15   79 1    
    32   15   80 1    
    33   16   17 1    
    34   17   18 1    
    35   17   81 1    
    36   17   82 1    
    37   18   19 1    
    38   18   22 1    
    39   18   83 1    
    40   19   20 am   BACKBONE|DICT|INTERRES
    41   19   21 2    
    42   20   84 1    
    43   20   85 1    
    44   22   23 am   BACKBONE|DICT|INTERRES
    45   22   86 1    
    46   23   24 2    
    47   23   25 1    
    48   25   26 1    
    49   25   27 1    
    50   25   87 1    
    51   26   88 1    
    52   26   89 1    
    53   26   90 1    
    54   27   28 am   BACKBONE|DICT|INTERRES
    55   27   91 1    
    56   28   29 2    
    57   28   30 1    
    58   30   31 1    
    59   30   32 1    
    60   30   92 1    
    61   31   93 1    
    62   31   94 1    
    63   31   95 1    
    64   32   33 am   BACKBONE|DICT|INTERRES
    65   32   96 1    
    66   33   34 2    
    67   33   35 1    
    68   35   36 1    
    69   35   37 1    
    70   35   97 1    
    71   36   98 1    
    72   36   99 1    
    73   36  100 1    
    74   37   38 am   BACKBONE|DICT|INTERRES
    75   37  101 1    
    76   38   39 2    
    77   38   40 1    
    78   40   41 1    
    79   40   42 1    
    80   40  102 1    
    81   41  103 1    
    82   41  104 1    
    83   41  105 1    
    84   42   43 am   BACKBONE|DICT|INTERRES
    85   42  106 1    
    86   43   44 2    
    87   43   45 1    
    88   45   46 1    
    89   45   49 1    
    90   45  107 1    
    91   46   47 1    
    92   46  108 1    
    93   46  109 1    
    94   47   48 1    
    95   48  110 1    
    96   48  111 1    
    97   49   50 am   BACKBONE|DICT|INTERRES
    98   49  112 1    
    99   50   51 2    
   100   50   52 1    
   101   52   53 1    
   102   52   54 1    
   103   52  113 1    
   104   53  114 1    
   105   53  115 1    
   106   53  116 1    
   107   54   55 am   BACKBONE|DICT|INTERRES
   108   54  117 1    
   109   55   56 2    
   110   55   57 1    
   111   57   58 1    
   112   57   59 1    
   113   57  118 1    
   114   58  119 1    
   115   58  120 1    
   116   58  121 1    
   117   59   60 am   BACKBONE|DICT|INTERRES
   118   59  122 1    
   119   60   61 2    
   120   60   62 1    
   121   62   63 1    
   122   62   64 1    
   123   62  123 1    
   124   63  124 1    
   125   63  125 1    
   126   63  126 1    
   127   64   65 am   BACKBONE|DICT|INTERRES
   128   64  127 1    
   129   65   66 2    
@<TRIPOS>SUBSTRUCTURE
     1 UNK         1 GROUP             0       ****    0 ROOT    
