@<TRIPOS>MOLECULE
3R8
117   119    1
SMALL
USER_CHARGES


@<TRIPOS>ATOM
      1 CA         13.3184  -24.8591  -42.4305 C.3       0 UNK        -0.2013 
      2 C          14.1897  -24.8834  -43.6772 C.2       0 UNK         0.4866 
      3 O          14.0979  -23.9787  -44.5071 O.2       0 UNK        -0.5176 
      4 N          15.0355  -25.9126  -43.8161 N.am      1 UNK        -0.4884 
      5 CA         15.9326  -26.1127  -44.9642 C.3       1 UNK         0.0853 
      6 C6         16.5117  -27.5493  -45.0093 C.3       10 UNK        -0.0849 
      7 S7         15.2757  -28.8829  -44.8357 S.3       10 UNK        -0.2776 
      8 C8         16.2975  -30.3787  -45.1011 C.3       10 UNK         0.0316 
      9 C9         17.6454  -30.3205  -44.3878 C.ar      10 UNK        -0.0863 
     10 C10        18.8331  -30.4370  -45.1184 C.ar      10 UNK        -0.1009 
     11 C11        20.0736  -30.3195  -44.4839 C.ar      10 UNK        -0.0712 
     12 C12        20.1191  -30.0676  -43.1097 C.ar      10 UNK        -0.0894 
     13 C13        18.9418  -29.9675  -42.3661 C.ar      10 UNK        -0.0745 
     14 C14        17.7083  -30.1123  -43.0061 C.ar      10 UNK        -0.0972 
     15 C15        18.9995  -29.7002  -40.8719 C.3       10 UNK         0.0209 
     16 S16        18.9416  -27.9157  -40.5188 S.3       10 UNK        -0.2568 
     17 C17        20.6926  -27.4225  -40.6907 C.3       10 UNK        -0.0983 
     18 CA         21.0278  -26.6872  -42.0189 C.3       3 UNK         0.0876 
     19 N          20.1030  -25.5709  -42.2658 N.am      3 UNK        -0.4424 
     20 C          19.8746  -24.9591  -43.4353 C.2       2 UNK         0.4918 
     21 O          20.4888  -25.2119  -44.4736 O.2       2 UNK        -0.4875 
     22 CA         18.7319  -23.9296  -43.4404 C.3       2 UNK         0.0481 
     23 CB         19.0306  -22.7058  -44.3317 C.3       2 UNK        -0.1831 
     24 N          17.4755  -24.5981  -43.7966 N.am      2 UNK        -0.4498 
     25 C          17.1169  -25.1218  -44.9820 C.2       1 UNK         0.5027 
     26 O          17.6948  -24.9070  -46.0479 O.2       1 UNK        -0.4969 
     27 C          22.5153  -26.2520  -42.0702 C.2       3 UNK         0.5005 
     28 O          23.2569  -26.4625  -41.1085 O.2       3 UNK        -0.5279 
     29 N          22.9234  -25.6212  -43.1788 N.am      4 UNK        -0.4463 
     30 CA         24.2454  -25.0235  -43.3835 C.3       4 UNK         0.0283 
     31 CB         24.2047  -24.1270  -44.6314 C.3       4 UNK        -0.1875 
     32 C          25.3886  -26.0460  -43.4938 C.2       4 UNK         0.4949 
     33 O          26.5173  -25.7194  -43.1259 O.2       4 UNK        -0.5039 
     34 N          25.0891  -27.2497  -44.0039 N.am      5 UNK        -0.4663 
     35 CA         26.0511  -28.3482  -44.1345 C.3       5 UNK         0.0242 
     36 CB         25.4819  -29.4320  -45.0672 C.3       5 UNK        -0.1982 
     37 C          26.4334  -28.9415  -42.7689 C.2       5 UNK         0.5017 
     38 O          27.6205  -29.0467  -42.4599 O.2       5 UNK        -0.5012 
     39 N          25.4091  -29.2954  -41.9859 N.am      6 UNK        -0.4439 
     40 CA         25.4482  -29.8816  -40.6495 C.3       6 UNK         0.0297 
     41 CB         26.2119  -31.2244  -40.6448 C.3       6 UNK        -0.2006 
     42 C          23.9958  -30.1236  -40.2268 C.2       6 UNK         0.4892 
     43 O          23.1246  -30.2365  -41.0925 O.2       6 UNK        -0.5089 
     44 N          23.7620  -30.2739  -38.9171 N.am      7 UNK        -0.4243 
     45 CA         22.4693  -30.7037  -38.3689 C.3       7 UNK         0.0196 
     46 CB         22.4710  -30.5256  -36.8427 C.3       7 UNK        -0.2007 
     47 C          22.1239  -32.1573  -38.7454 C.2       7 UNK         0.5020 
     48 O          20.9525  -32.4733  -38.9507 O.2       7 UNK        -0.5147 
     49 N          23.1585  -33.0025  -38.8740 N.am      8 UNK        -0.4734 
     50 CA         23.0749  -34.4151  -39.2652 C.3       8 UNK         0.0238 
     51 CB         24.4546  -35.0662  -39.0723 C.3       8 UNK        -0.1912 
     52 C          22.5655  -34.6539  -40.7000 C.2       8 UNK         0.5038 
     53 O          22.1395  -35.7690  -41.0033 O.2       8 UNK        -0.5046 
     54 N          22.6079  -33.6164  -41.5465 N.am      9 UNK        -0.4200 
     55 CA         21.9870  -33.5909  -42.8789 C.3       9 UNK         0.0839 
     56 C          20.4248  -33.5962  -42.8274 C.2       9 UNK         0.5513 
     57 N          19.7924  -33.2356  -41.7145 N.am      9 UNK        -0.7519 
     58 O          19.7750  -33.9959  -43.7897 O.2       9 UNK        -0.4960 
     59 C59        22.6153  -32.4405  -43.7182 C.3       10 UNK        -0.0876 
     60 S60        21.9506  -32.1639  -45.3982 S.3       10 UNK        -0.2414 
     61 C61        21.3598  -30.4409  -45.2894 C.3       10 UNK         0.0169 
     62 H62        12.2650  -24.8637  -42.7094 H         1 UNK         0.0903 
     63 H63        13.5020  -25.7194  -41.7871 H         1 UNK         0.0903 
     64 H64        13.5140  -23.9557  -41.8533 H         1 UNK         0.0903 
     65 H65        15.0444  -26.6507  -43.1254 H         1 UNK         0.3096 
     66 H66        15.3546  -25.9465  -45.8761 H         1 UNK         0.1121 
     67 H67        17.2460  -27.6691  -44.2103 H         1 UNK         0.0849 
     68 H68        17.0534  -27.7092  -45.9441 H         1 UNK         0.0849 
     69 H69        15.7463  -31.2534  -44.7535 H         1 UNK         0.0865 
     70 H70        16.4379  -30.5132  -46.1748 H         1 UNK         0.0865 
     71 H71        18.7959  -30.6093  -46.1853 H         1 UNK         0.1346 
     72 H72        21.0688  -29.9506  -42.6098 H         1 UNK         0.1412 
     73 H73        16.7937  -30.0211  -42.4361 H         1 UNK         0.1426 
     74 H74        19.8922  -30.1499  -40.4353 H         1 UNK         0.0716 
     75 H75        18.1522  -30.1814  -40.3811 H         1 UNK         0.0716 
     76 H76        20.9243  -26.7819  -39.8376 H         1 UNK         0.0695 
     77 H77        21.3241  -28.3044  -40.5774 H         1 UNK         0.0695 
     78 H78        20.8920  -27.4011  -42.8330 H         1 UNK         0.0983 
     79 H79        19.5465  -25.3000  -41.4682 H         1 UNK         0.3095 
     80 H80        18.6041  -23.5605  -42.4215 H         1 UNK         0.0454 
     81 H81        19.8949  -22.1587  -43.9541 H         1 UNK         0.0851 
     82 H82        19.2569  -22.9833  -45.3613 H         1 UNK         0.0851 
     83 H83        18.1894  -22.0132  -44.3488 H         1 UNK         0.0851 
     84 H84        16.8912  -24.8516  -43.0120 H         1 UNK         0.2976 
     85 H85        22.2237  -25.4604  -43.9011 H         1 UNK         0.3116 
     86 H86        24.4588  -24.3906  -42.5194 H         1 UNK         0.0646 
     87 H87        25.1681  -23.6423  -44.7961 H         1 UNK         0.0847 
     88 H88        23.4600  -23.3373  -44.5295 H         1 UNK         0.0847 
     89 H89        23.9684  -24.6968  -45.5309 H         1 UNK         0.0847 
     90 H90        24.1390  -27.4222  -44.2971 H         1 UNK         0.3040 
     91 H91        26.9616  -27.9528  -44.5912 H         1 UNK         0.1015 
     92 H92        25.2629  -29.0295  -46.0564 H         1 UNK         0.0786 
     93 H93        24.5658  -29.8734  -44.6742 H         1 UNK         0.0786 
     94 H94        26.1991  -30.2431  -45.2015 H         1 UNK         0.0786 
     95 H95        24.4636  -29.1605  -42.3227 H         1 UNK         0.3172 
     96 H96        25.9141  -29.1724  -39.9630 H         1 UNK         0.0595 
     97 H97        27.2658  -31.0943  -40.8879 H         1 UNK         0.0839 
     98 H98        25.7894  -31.9301  -41.3615 H         1 UNK         0.0839 
     99 H99        26.1776  -31.6968  -39.6625 H         1 UNK         0.0839 
    100 H100       24.5225  -30.1540  -38.2627 H         1 UNK         0.2998 
    101 H101       21.6921  -30.0598  -38.7854 H         1 UNK         0.0822 
    102 H102       22.6425  -29.4853  -36.5653 H         1 UNK         0.0787 
    103 H103       21.5106  -30.8187  -36.4160 H         1 UNK         0.0787 
    104 H104       23.2397  -31.1334  -36.3636 H         1 UNK         0.0787 
    105 H105       24.0821  -32.6461  -38.6781 H         1 UNK         0.3055 
    106 H106       22.3652  -34.9031  -38.5933 H         1 UNK         0.1106 
    107 H107       25.2120  -34.6042  -39.7070 H         1 UNK         0.0828 
    108 H108       24.7896  -34.9908  -38.0376 H         1 UNK         0.0828 
    109 H109       24.4246  -36.1278  -39.3223 H         1 UNK         0.0828 
    110 H110       22.9458  -32.7312  -41.1972 H         1 UNK         0.2931 
    111 H111       22.2655  -34.5229  -43.3748 H         1 UNK         0.0412 
    112 H112       18.7860  -33.2586  -41.7012 H         1 UNK         0.3472 
    113 H113       20.2997  -32.9487  -40.8868 H         1 UNK         0.3472 
    114 H114       22.5527  -31.5079  -43.1657 H         1 UNK         0.0970 
    115 H115       23.6846  -32.6274  -43.8281 H         1 UNK         0.0970 
    116 H116       21.1943  -30.0674  -46.3011 H         1 UNK         0.0612 
    117 H117       22.1378  -29.8085  -44.8602 H         1 UNK         0.0612 
@<TRIPOS>BOND
     1    1    2 1    
     2    1   62 1    
     3    1   63 1    
     4    1   64 1    
     5    2    3 2    
     6    2    4 am   BACKBONE|DICT|INTERRES
     7    4    5 1    
     8    4   65 1    
     9    5    6 1    
    10    5   25 1    
    11    5   66 1    
    12    6    7 1    
    13    6   67 1    
    14    6   68 1    
    15    7    8 1    
    16    8    9 1    
    17    8   69 1    
    18    8   70 1    
    19    9   10 ar   
    20    9   14 ar   
    21   10   11 ar   
    22   10   71 1    
    23   11   12 ar   
    24   11   61 1    
    25   12   13 ar   
    26   12   72 1    
    27   13   14 ar   
    28   13   15 1    
    29   14   73 1    
    30   15   16 1    
    31   15   74 1    
    32   15   75 1    
    33   16   17 1    
    34   17   18 1    
    35   17   76 1    
    36   17   77 1    
    37   18   19 1    
    38   18   27 1    
    39   18   78 1    
    40   19   20 am   BACKBONE|DICT|INTERRES
    41   19   79 1    
    42   20   21 2    
    43   20   22 1    
    44   22   23 1    
    45   22   24 1    
    46   22   80 1    
    47   23   81 1    
    48   23   82 1    
    49   23   83 1    
    50   24   25 am   BACKBONE|DICT|INTERRES
    51   24   84 1    
    52   25   26 2    
    53   27   28 2    
    54   27   29 am   BACKBONE|DICT|INTERRES
    55   29   30 1    
    56   29   85 1    
    57   30   31 1    
    58   30   32 1    
    59   30   86 1    
    60   31   87 1    
    61   31   88 1    
    62   31   89 1    
    63   32   33 2    
    64   32   34 am   BACKBONE|DICT|INTERRES
    65   34   35 1    
    66   34   90 1    
    67   35   36 1    
    68   35   37 1    
    69   35   91 1    
    70   36   92 1    
    71   36   93 1    
    72   36   94 1    
    73   37   38 2    
    74   37   39 am   BACKBONE|DICT|INTERRES
    75   39   40 1    
    76   39   95 1    
    77   40   41 1    
    78   40   42 1    
    79   40   96 1    
    80   41   97 1    
    81   41   98 1    
    82   41   99 1    
    83   42   43 2    
    84   42   44 am   BACKBONE|DICT|INTERRES
    85   44   45 1    
    86   44  100 1    
    87   45   46 1    
    88   45   47 1    
    89   45  101 1    
    90   46  102 1    
    91   46  103 1    
    92   46  104 1    
    93   47   48 2    
    94   47   49 am   BACKBONE|DICT|INTERRES
    95   49   50 1    
    96   49  105 1    
    97   50   51 1    
    98   50   52 1    
    99   50  106 1    
   100   51  107 1    
   101   51  108 1    
   102   51  109 1    
   103   52   53 2    
   104   52   54 am   BACKBONE|DICT|INTERRES
   105   54   55 1    
   106   54  110 1    
   107   55   56 1    
   108   55   59 1    
   109   55  111 1    
   110   56   57 am   BACKBONE|DICT|INTERRES
   111   56   58 2    
   112   57  112 1    
   113   57  113 1    
   114   59   60 1    
   115   59  114 1    
   116   59  115 1    
   117   60   61 1    
   118   61  116 1    
   119   61  117 1    
@<TRIPOS>SUBSTRUCTURE
     1 UNK         1 GROUP             0       ****    0 ROOT    
