@<TRIPOS>MOLECULE
3R8
117   119    1
SMALL
USER_CHARGES


@<TRIPOS>ATOM
      1 CA         12.4848  -28.1847  -47.1855 C.3       0 UNK        -0.2013 
      2 C          13.8840  -28.7108  -46.9015 C.2       0 UNK         0.4866 
      3 O          14.3614  -29.5960  -47.6125 O.2       0 UNK        -0.5176 
      4 N          14.5405  -28.1809  -45.8624 N.am      1 UNK        -0.4884 
      5 CA         15.9103  -28.5315  -45.4743 C.3       1 UNK         0.0853 
      6 C6         16.2706  -27.9765  -44.0757 C.3       10 UNK        -0.0849 
      7 S7         15.3504  -28.7657  -42.7162 S.3       10 UNK        -0.2776 
      8 C8         15.5637  -27.5357  -41.3835 C.3       10 UNK         0.0316 
      9 C9         17.0203  -27.1238  -41.2029 C.ar      10 UNK        -0.0863 
     10 C10        17.9279  -27.9827  -40.5763 C.ar      10 UNK        -0.1009 
     11 C11        19.2717  -27.6179  -40.4460 C.ar      10 UNK        -0.0712 
     12 C12        19.7048  -26.3822  -40.9347 C.ar      10 UNK        -0.0894 
     13 C13        18.8090  -25.5224  -41.5730 C.ar      10 UNK        -0.0745 
     14 C14        17.4664  -25.8917  -41.6921 C.ar      10 UNK        -0.0972 
     15 C15        19.2881  -24.2029  -42.1548 C.3       10 UNK         0.0209 
     16 S16        19.6105  -24.3521  -43.9405 S.3       10 UNK        -0.2568 
     17 C17        21.2889  -25.0724  -43.9867 C.3       10 UNK        -0.0983 
     18 CA         21.3232  -26.5848  -44.3346 C.3       3 UNK         0.0876 
     19 N          20.5595  -26.8987  -45.5448 N.am      3 UNK        -0.4424 
     20 C          20.2595  -28.1358  -45.9535 C.2       2 UNK         0.4918 
     21 O          20.6180  -29.1619  -45.3721 O.2       2 UNK        -0.4875 
     22 CA         19.3187  -28.2578  -47.1562 C.3       2 UNK         0.0481 
     23 CB         19.8510  -29.2638  -48.1909 C.3       2 UNK        -0.1831 
     24 N          18.0537  -28.7375  -46.6110 N.am      2 UNK        -0.4498 
     25 C          16.9442  -28.0019  -46.4876 C.2       1 UNK         0.5027 
     26 O          16.7630  -26.9180  -47.0492 O.2       1 UNK        -0.4969 
     27 C          22.7817  -27.0704  -44.4716 C.2       3 UNK         0.5005 
     28 O          23.5051  -26.5606  -45.3307 O.2       3 UNK        -0.5279 
     29 N          23.1857  -28.0354  -43.6342 N.am      4 UNK        -0.4463 
     30 CA         24.5618  -28.5288  -43.5378 C.3       4 UNK         0.0283 
     31 CB         24.6306  -29.8274  -42.7169 C.3       4 UNK        -0.1875 
     32 C          25.5916  -27.4816  -43.0570 C.2       4 UNK         0.4949 
     33 O          26.6270  -27.3603  -43.7072 O.2       4 UNK        -0.5039 
     34 N          25.3786  -26.7104  -41.9754 N.am      5 UNK        -0.4663 
     35 CA         24.3261  -26.7648  -40.9492 C.3       5 UNK         0.0242 
     36 CB         24.0079  -25.3272  -40.5036 C.3       5 UNK        -0.1982 
     37 C          24.7088  -27.6421  -39.7414 C.2       5 UNK         0.5017 
     38 O          23.9671  -27.6693  -38.7585 O.2       5 UNK        -0.5012 
     39 N          25.8483  -28.3436  -39.8233 N.am      6 UNK        -0.4439 
     40 CA         26.3969  -29.2386  -38.8011 C.3       6 UNK         0.0297 
     41 CB         27.8840  -29.4892  -39.1151 C.3       6 UNK        -0.2006 
     42 C          25.5997  -30.5522  -38.6488 C.2       6 UNK         0.4892 
     43 O          26.1282  -31.6298  -38.9283 O.2       6 UNK        -0.5089 
     44 N          24.3417  -30.4298  -38.2054 N.am      7 UNK        -0.4243 
     45 CA         23.3714  -31.4655  -37.8177 C.3       7 UNK         0.0196 
     46 CB         23.8927  -32.2937  -36.6276 C.3       7 UNK        -0.2007 
     47 C          22.8758  -32.3898  -38.9446 C.2       7 UNK         0.5020 
     48 O          21.6815  -32.6856  -38.9882 O.2       7 UNK        -0.5147 
     49 N          23.7666  -32.8283  -39.8412 N.am      8 UNK        -0.4734 
     50 CA         23.5008  -33.7455  -40.9589 C.3       8 UNK         0.0238 
     51 CB         24.8270  -34.4124  -41.3698 C.3       8 UNK        -0.1912 
     52 C          22.7882  -33.0665  -42.1492 C.2       8 UNK         0.5038 
     53 O          23.1846  -33.2589  -43.3003 O.2       8 UNK        -0.5046 
     54 N          21.7748  -32.2538  -41.8431 N.am      9 UNK        -0.4200 
     55 CA         20.9964  -31.4401  -42.7818 C.3       9 UNK         0.0839 
     56 C          20.0320  -32.2842  -43.6554 C.2       9 UNK         0.5513 
     57 N          19.6943  -31.7917  -44.8379 N.am      9 UNK        -0.7519 
     58 O          19.5638  -33.3514  -43.2627 O.2       9 UNK        -0.4960 
     59 C59        20.2421  -30.3098  -42.0372 C.3       10 UNK        -0.0876 
     60 S60        21.3820  -29.2659  -41.0654 S.3       10 UNK        -0.2414 
     61 C61        20.2706  -28.5689  -39.8103 C.3       10 UNK         0.0169 
     62 H62        11.7605  -28.9970  -47.1330 H         1 UNK         0.0903 
     63 H63        12.1849  -27.4168  -46.4726 H         1 UNK         0.0903 
     64 H64        12.4423  -27.7539  -48.1856 H         1 UNK         0.0903 
     65 H65        14.1052  -27.4514  -45.3164 H         1 UNK         0.3096 
     66 H66        15.9824  -29.6216  -45.4495 H         1 UNK         0.1121 
     67 H67        16.1023  -26.8980  -44.0459 H         1 UNK         0.0849 
     68 H68        17.3321  -28.1232  -43.8603 H         1 UNK         0.0849 
     69 H69        14.9435  -26.6646  -41.6011 H         1 UNK         0.0865 
     70 H70        15.1832  -27.9523  -40.4497 H         1 UNK         0.0865 
     71 H71        17.5905  -28.9435  -40.2119 H         1 UNK         0.1346 
     72 H72        20.7460  -26.1054  -40.8421 H         1 UNK         0.1412 
     73 H73        16.7745  -25.2272  -42.1918 H         1 UNK         0.1426 
     74 H74        20.1791  -23.8449  -41.6368 H         1 UNK         0.0716 
     75 H75        18.5231  -23.4404  -42.0007 H         1 UNK         0.0716 
     76 H76        21.8545  -24.4998  -44.7244 H         1 UNK         0.0695 
     77 H77        21.7844  -24.8947  -43.0309 H         1 UNK         0.0695 
     78 H78        20.8516  -27.1249  -43.5106 H         1 UNK         0.0983 
     79 H79        20.2084  -26.1060  -46.0618 H         1 UNK         0.3095 
     80 H80        19.2071  -27.2842  -47.6381 H         1 UNK         0.0454 
     81 H81        20.8150  -28.9409  -48.5858 H         1 UNK         0.0851 
     82 H82        19.9898  -30.2582  -47.7649 H         1 UNK         0.0851 
     83 H83        19.1686  -29.3567  -49.0357 H         1 UNK         0.0851 
     84 H84        18.1192  -29.5979  -46.0846 H         1 UNK         0.2976 
     85 H85        22.5168  -28.4363  -42.9898 H         1 UNK         0.3116 
     86 H86        24.8594  -28.7974  -44.5540 H         1 UNK         0.0646 
     87 H87        25.6623  -30.1538  -42.5796 H         1 UNK         0.0847 
     88 H88        24.1124  -30.6339  -43.2330 H         1 UNK         0.0847 
     89 H89        24.1867  -29.7275  -41.7285 H         1 UNK         0.0847 
     90 H90        26.0971  -26.0275  -41.7794 H         1 UNK         0.3040 
     91 H91        23.4046  -27.1811  -41.3408 H         1 UNK         0.1015 
     92 H92        23.7058  -24.7078  -41.3482 H         1 UNK         0.0786 
     93 H93        24.8670  -24.8511  -40.0294 H         1 UNK         0.0786 
     94 H94        23.1877  -25.3094  -39.7843 H         1 UNK         0.0786 
     95 H95        26.3887  -28.2513  -40.6710 H         1 UNK         0.3172 
     96 H96        26.3477  -28.7238  -37.8392 H         1 UNK         0.0595 
     97 H97        28.4498  -28.5575  -39.1341 H         1 UNK         0.0839 
     98 H98        28.0171  -29.9839  -40.0782 H         1 UNK         0.0839 
     99 H99        28.3413  -30.1261  -38.3566 H         1 UNK         0.0839 
    100 H100       24.0043  -29.4739  -38.1168 H         1 UNK         0.2998 
    101 H101       22.4943  -30.9162  -37.4710 H         1 UNK         0.0822 
    102 H102       24.1491  -31.6551  -35.7823 H         1 UNK         0.0787 
    103 H103       23.1356  -32.9991  -36.2824 H         1 UNK         0.0787 
    104 H104       24.7782  -32.8732  -36.8913 H         1 UNK         0.0787 
    105 H105       24.7280  -32.5171  -39.7157 H         1 UNK         0.3055 
    106 H106       22.8297  -34.5311  -40.6045 H         1 UNK         0.1106 
    107 H107       24.6689  -35.1558  -42.1523 H         1 UNK         0.0828 
    108 H108       25.5419  -33.6818  -41.7507 H         1 UNK         0.0828 
    109 H109       25.2903  -34.9270  -40.5278 H         1 UNK         0.0828 
    110 H110       21.5080  -32.1910  -40.8665 H         1 UNK         0.2931 
    111 H111       21.7107  -30.9684  -43.4598 H         1 UNK         0.0412 
    112 H112       19.0737  -32.3145  -45.4348 H         1 UNK         0.3472 
    113 H113       20.0831  -30.9024  -45.1420 H         1 UNK         0.3472 
    114 H114       19.4853  -30.7316  -41.3730 H         1 UNK         0.0970 
    115 H115       19.7098  -29.6685  -42.7426 H         1 UNK         0.0970 
    116 H116       19.7676  -29.3765  -39.2761 H         1 UNK         0.0612 
    117 H117       20.8664  -28.0309  -39.0713 H         1 UNK         0.0612 
@<TRIPOS>BOND
     1    1    2 1    
     2    1   62 1    
     3    1   63 1    
     4    1   64 1    
     5    2    3 2    
     6    2    4 am   BACKBONE|DICT|INTERRES
     7    4    5 1    
     8    4   65 1    
     9    5    6 1    
    10    5   25 1    
    11    5   66 1    
    12    6    7 1    
    13    6   67 1    
    14    6   68 1    
    15    7    8 1    
    16    8    9 1    
    17    8   69 1    
    18    8   70 1    
    19    9   10 ar   
    20    9   14 ar   
    21   10   11 ar   
    22   10   71 1    
    23   11   12 ar   
    24   11   61 1    
    25   12   13 ar   
    26   12   72 1    
    27   13   14 ar   
    28   13   15 1    
    29   14   73 1    
    30   15   16 1    
    31   15   74 1    
    32   15   75 1    
    33   16   17 1    
    34   17   18 1    
    35   17   76 1    
    36   17   77 1    
    37   18   19 1    
    38   18   27 1    
    39   18   78 1    
    40   19   20 am   BACKBONE|DICT|INTERRES
    41   19   79 1    
    42   20   21 2    
    43   20   22 1    
    44   22   23 1    
    45   22   24 1    
    46   22   80 1    
    47   23   81 1    
    48   23   82 1    
    49   23   83 1    
    50   24   25 am   BACKBONE|DICT|INTERRES
    51   24   84 1    
    52   25   26 2    
    53   27   28 2    
    54   27   29 am   BACKBONE|DICT|INTERRES
    55   29   30 1    
    56   29   85 1    
    57   30   31 1    
    58   30   32 1    
    59   30   86 1    
    60   31   87 1    
    61   31   88 1    
    62   31   89 1    
    63   32   33 2    
    64   32   34 am   BACKBONE|DICT|INTERRES
    65   34   35 1    
    66   34   90 1    
    67   35   36 1    
    68   35   37 1    
    69   35   91 1    
    70   36   92 1    
    71   36   93 1    
    72   36   94 1    
    73   37   38 2    
    74   37   39 am   BACKBONE|DICT|INTERRES
    75   39   40 1    
    76   39   95 1    
    77   40   41 1    
    78   40   42 1    
    79   40   96 1    
    80   41   97 1    
    81   41   98 1    
    82   41   99 1    
    83   42   43 2    
    84   42   44 am   BACKBONE|DICT|INTERRES
    85   44   45 1    
    86   44  100 1    
    87   45   46 1    
    88   45   47 1    
    89   45  101 1    
    90   46  102 1    
    91   46  103 1    
    92   46  104 1    
    93   47   48 2    
    94   47   49 am   BACKBONE|DICT|INTERRES
    95   49   50 1    
    96   49  105 1    
    97   50   51 1    
    98   50   52 1    
    99   50  106 1    
   100   51  107 1    
   101   51  108 1    
   102   51  109 1    
   103   52   53 2    
   104   52   54 am   BACKBONE|DICT|INTERRES
   105   54   55 1    
   106   54  110 1    
   107   55   56 1    
   108   55   59 1    
   109   55  111 1    
   110   56   57 am   BACKBONE|DICT|INTERRES
   111   56   58 2    
   112   57  112 1    
   113   57  113 1    
   114   59   60 1    
   115   59  114 1    
   116   59  115 1    
   117   60   61 1    
   118   61  116 1    
   119   61  117 1    
@<TRIPOS>SUBSTRUCTURE
     1 UNK         1 GROUP             0       ****    0 ROOT    
