@<TRIPOS>MOLECULE
3R8
117   119    1
SMALL
USER_CHARGES


@<TRIPOS>ATOM
      1 CA         16.3705  -26.6687  -49.1990 C.3       0 UNK        -0.2013 
      2 C          17.0842  -26.6285  -47.8567 C.2       0 UNK         0.4866 
      3 O          18.1506  -26.0232  -47.7459 O.2       0 UNK        -0.5176 
      4 N          16.4975  -27.2494  -46.8257 N.am      1 UNK        -0.4884 
      5 CA         17.0375  -27.3806  -45.4624 C.3       1 UNK         0.0853 
      6 C6         16.4335  -28.6133  -44.7379 C.3       10 UNK        -0.0849 
      7 S7         16.8777  -30.1668  -45.5933 S.3       10 UNK        -0.2776 
      8 C8         17.8335  -31.0761  -44.3299 C.3       10 UNK         0.0316 
      9 C9         18.9593  -30.2605  -43.7007 C.ar      10 UNK        -0.0863 
     10 C10        19.0416  -30.1523  -42.3088 C.ar      10 UNK        -0.1009 
     11 C11        20.0593  -29.4033  -41.7119 C.ar      10 UNK        -0.0712 
     12 C12        20.9920  -28.7462  -42.5178 C.ar      10 UNK        -0.0894 
     13 C13        20.9233  -28.8456  -43.9088 C.ar      10 UNK        -0.0745 
     14 C14        19.9153  -29.6179  -44.4951 C.ar      10 UNK        -0.0972 
     15 C15        21.9395  -28.1261  -44.7798 C.3       10 UNK         0.0209 
     16 S16        21.2532  -26.5941  -45.4773 S.3       10 UNK        -0.2568 
     17 C17        22.0296  -25.2712  -44.4694 C.3       10 UNK        -0.0983 
     18 CA         21.0549  -24.3957  -43.6265 C.3       3 UNK         0.0876 
     19 N          19.7335  -24.2850  -44.2439 N.am      3 UNK        -0.4424 
     20 C          18.7474  -23.4496  -43.8937 C.2       2 UNK         0.4918 
     21 O          18.8669  -22.5606  -43.0498 O.2       2 UNK        -0.4875 
     22 CA         17.4004  -23.6284  -44.6194 C.3       2 UNK         0.0481 
     23 CB         17.2206  -22.5427  -45.6923 C.3       2 UNK        -0.1831 
     24 N          17.2873  -24.9452  -45.2522 N.am      2 UNK        -0.4498 
     25 C          16.9022  -26.0738  -44.6424 C.2       1 UNK         0.5027 
     26 O          16.4589  -26.1022  -43.4931 O.2       1 UNK        -0.4969 
     27 C          20.9567  -24.8523  -42.1550 C.2       3 UNK         0.5005 
     28 O          20.1003  -25.6709  -41.8147 O.2       3 UNK        -0.5279 
     29 N          21.8239  -24.2851  -41.3046 N.am      4 UNK        -0.4463 
     30 CA         21.7938  -24.4670  -39.8507 C.3       4 UNK         0.0283 
     31 CB         22.5688  -23.3206  -39.1801 C.3       4 UNK        -0.1875 
     32 C          22.3397  -25.8233  -39.3778 C.2       4 UNK         0.4949 
     33 O          21.8909  -26.3166  -38.3429 O.2       4 UNK        -0.5039 
     34 N          23.2993  -26.3925  -40.1163 N.am      5 UNK        -0.4663 
     35 CA         23.9499  -27.6603  -39.7974 C.3       5 UNK         0.0242 
     36 CB         25.0389  -27.4448  -38.7294 C.3       5 UNK        -0.1982 
     37 C          24.5510  -28.2623  -41.0701 C.2       5 UNK         0.5017 
     38 O          24.9610  -27.5128  -41.9597 O.2       5 UNK        -0.5012 
     39 N          24.6127  -29.5960  -41.1074 N.am      6 UNK        -0.4439 
     40 CA         25.1997  -30.4447  -42.1419 C.3       6 UNK         0.0297 
     41 CB         24.4968  -30.2468  -43.5013 C.3       6 UNK        -0.2006 
     42 C          25.0529  -31.8988  -41.6787 C.2       6 UNK         0.4892 
     43 O          24.3380  -32.1641  -40.7076 O.2       6 UNK        -0.5089 
     44 N          25.6656  -32.8316  -42.4203 N.am      7 UNK        -0.4243 
     45 CA         25.5280  -34.2837  -42.2282 C.3       7 UNK         0.0196 
     46 CB         26.4759  -35.0103  -43.1962 C.3       7 UNK        -0.2007 
     47 C          24.0851  -34.8099  -42.3887 C.2       7 UNK         0.5020 
     48 O          23.7860  -35.9095  -41.9239 O.2       7 UNK        -0.5147 
     49 N          23.2150  -34.0082  -43.0185 N.am      8 UNK        -0.4734 
     50 CA         21.7740  -34.2303  -43.1366 C.3       8 UNK         0.0238 
     51 CB         21.2057  -33.2354  -44.1614 C.3       8 UNK        -0.1912 
     52 C          21.0062  -34.1171  -41.8041 C.2       8 UNK         0.5038 
     53 O          19.8870  -34.6274  -41.7333 O.2       8 UNK        -0.5046 
     54 N          21.5919  -33.4666  -40.7883 N.am      9 UNK        -0.4200 
     55 CA         21.0000  -33.3053  -39.4508 C.3       9 UNK         0.0839 
     56 C          21.9835  -33.5678  -38.2769 C.2       9 UNK         0.5513 
     57 N          23.2954  -33.5262  -38.4724 N.am      9 UNK        -0.7519 
     58 O          21.5425  -33.8452  -37.1643 O.2       9 UNK        -0.4960 
     59 C59        20.2361  -31.9633  -39.3027 C.3       10 UNK        -0.0876 
     60 S60        21.2954  -30.4846  -39.4802 S.3       10 UNK        -0.2414 
     61 C61        20.1416  -29.2751  -40.1992 C.3       10 UNK         0.0169 
     62 H62        16.1359  -25.6572  -49.5296 H         1 UNK         0.0903 
     63 H63        17.0104  -27.1327  -49.9490 H         1 UNK         0.0903 
     64 H64        15.4404  -27.2347  -49.1500 H         1 UNK         0.0903 
     65 H65        15.6132  -27.7141  -46.9772 H         1 UNK         0.3096 
     66 H66        18.1134  -27.5528  -45.5454 H         1 UNK         0.1121 
     67 H67        15.3459  -28.5366  -44.6900 H         1 UNK         0.0849 
     68 H68        16.7743  -28.6647  -43.7025 H         1 UNK         0.0849 
     69 H69        17.1401  -31.4297  -43.5651 H         1 UNK         0.0865 
     70 H70        18.2579  -31.9683  -44.7906 H         1 UNK         0.0865 
     71 H71        18.3080  -30.6460  -41.6870 H         1 UNK         0.1346 
     72 H72        21.7646  -28.1460  -42.0595 H         1 UNK         0.1412 
     73 H73        19.8598  -29.6985  -45.5722 H         1 UNK         0.1426 
     74 H74        22.2412  -28.7809  -45.5985 H         1 UNK         0.0716 
     75 H75        22.8463  -27.9085  -44.2163 H         1 UNK         0.0716 
     76 H76        22.5382  -24.6211  -45.1830 H         1 UNK         0.0695 
     77 H77        22.8324  -25.6815  -43.8540 H         1 UNK         0.0695 
     78 H78        21.4619  -23.3819  -43.6103 H         1 UNK         0.0983 
     79 H79        19.5354  -24.9949  -44.9337 H         1 UNK         0.3095 
     80 H80        16.6046  -23.5143  -43.8806 H         1 UNK         0.0454 
     81 H81        17.9903  -22.6036  -46.4628 H         1 UNK         0.0851 
     82 H82        17.2771  -21.5460  -45.2525 H         1 UNK         0.0851 
     83 H83        16.2496  -22.6251  -46.1807 H         1 UNK         0.0851 
     84 H84        17.6295  -25.0349  -46.2062 H         1 UNK         0.2976 
     85 H85        22.5018  -23.6263  -41.6616 H         1 UNK         0.3116 
     86 H86        20.7536  -24.4034  -39.5229 H         1 UNK         0.0646 
     87 H87        23.6188  -23.3133  -39.4754 H         1 UNK         0.0847 
     88 H88        22.5384  -23.4136  -38.0934 H         1 UNK         0.0847 
     89 H89        22.1405  -22.3500  -39.4308 H         1 UNK         0.0847 
     90 H90        23.6099  -25.9539  -40.9737 H         1 UNK         0.3040 
     91 H91        23.2005  -28.3503  -39.4075 H         1 UNK         0.1015 
     92 H92        25.7977  -26.7378  -39.0672 H         1 UNK         0.0786 
     93 H93        25.5459  -28.3810  -38.4917 H         1 UNK         0.0786 
     94 H94        24.6167  -27.0637  -37.7994 H         1 UNK         0.0786 
     95 H95        24.2371  -30.1385  -40.3360 H         1 UNK         0.3172 
     96 H96        26.2622  -30.2116  -42.2304 H         1 UNK         0.0595 
     97 H97        24.8597  -30.9492  -44.2522 H         1 UNK         0.0839 
     98 H98        24.6844  -29.2523  -43.9025 H         1 UNK         0.0839 
     99 H99        23.4184  -30.3856  -43.4184 H         1 UNK         0.0839 
    100 H100       26.2359  -32.5339  -43.1994 H         1 UNK         0.2998 
    101 H101       25.8383  -34.5119  -41.2062 H         1 UNK         0.0822 
    102 H102       26.4229  -36.0913  -43.0577 H         1 UNK         0.0787 
    103 H103       26.2259  -34.8029  -44.2375 H         1 UNK         0.0787 
    104 H104       27.5130  -34.7165  -43.0331 H         1 UNK         0.0787 
    105 H105       23.5646  -33.1330  -43.3782 H         1 UNK         0.3055 
    106 H106       21.6192  -35.2440  -43.5131 H         1 UNK         0.1106 
    107 H107       20.1403  -33.4070  -44.3170 H         1 UNK         0.0828 
    108 H108       21.3244  -32.2029  -43.8294 H         1 UNK         0.0828 
    109 H109       21.6923  -33.3369  -45.1316 H         1 UNK         0.0828 
    110 H110       22.5128  -33.0640  -40.9151 H         1 UNK         0.2931 
    111 H111       20.2530  -34.0919  -39.3272 H         1 UNK         0.0412 
    112 H112       23.6862  -33.1763  -39.3423 H         1 UNK         0.3472 
    113 H113       23.9077  -33.7167  -37.6957 H         1 UNK         0.3472 
    114 H114       19.7350  -31.9146  -38.3343 H         1 UNK         0.0970 
    115 H115       19.4398  -31.9274  -40.0457 H         1 UNK         0.0970 
    116 H116       20.4812  -28.2714  -39.9400 H         1 UNK         0.0612 
    117 H117       19.1558  -29.3863  -39.7452 H         1 UNK         0.0612 
@<TRIPOS>BOND
     1    1    2 1    
     2    1   62 1    
     3    1   63 1    
     4    1   64 1    
     5    2    3 2    
     6    2    4 am   BACKBONE|DICT|INTERRES
     7    4    5 1    
     8    4   65 1    
     9    5    6 1    
    10    5   25 1    
    11    5   66 1    
    12    6    7 1    
    13    6   67 1    
    14    6   68 1    
    15    7    8 1    
    16    8    9 1    
    17    8   69 1    
    18    8   70 1    
    19    9   10 ar   
    20    9   14 ar   
    21   10   11 ar   
    22   10   71 1    
    23   11   12 ar   
    24   11   61 1    
    25   12   13 ar   
    26   12   72 1    
    27   13   14 ar   
    28   13   15 1    
    29   14   73 1    
    30   15   16 1    
    31   15   74 1    
    32   15   75 1    
    33   16   17 1    
    34   17   18 1    
    35   17   76 1    
    36   17   77 1    
    37   18   19 1    
    38   18   27 1    
    39   18   78 1    
    40   19   20 am   BACKBONE|DICT|INTERRES
    41   19   79 1    
    42   20   21 2    
    43   20   22 1    
    44   22   23 1    
    45   22   24 1    
    46   22   80 1    
    47   23   81 1    
    48   23   82 1    
    49   23   83 1    
    50   24   25 am   BACKBONE|DICT|INTERRES
    51   24   84 1    
    52   25   26 2    
    53   27   28 2    
    54   27   29 am   BACKBONE|DICT|INTERRES
    55   29   30 1    
    56   29   85 1    
    57   30   31 1    
    58   30   32 1    
    59   30   86 1    
    60   31   87 1    
    61   31   88 1    
    62   31   89 1    
    63   32   33 2    
    64   32   34 am   BACKBONE|DICT|INTERRES
    65   34   35 1    
    66   34   90 1    
    67   35   36 1    
    68   35   37 1    
    69   35   91 1    
    70   36   92 1    
    71   36   93 1    
    72   36   94 1    
    73   37   38 2    
    74   37   39 am   BACKBONE|DICT|INTERRES
    75   39   40 1    
    76   39   95 1    
    77   40   41 1    
    78   40   42 1    
    79   40   96 1    
    80   41   97 1    
    81   41   98 1    
    82   41   99 1    
    83   42   43 2    
    84   42   44 am   BACKBONE|DICT|INTERRES
    85   44   45 1    
    86   44  100 1    
    87   45   46 1    
    88   45   47 1    
    89   45  101 1    
    90   46  102 1    
    91   46  103 1    
    92   46  104 1    
    93   47   48 2    
    94   47   49 am   BACKBONE|DICT|INTERRES
    95   49   50 1    
    96   49  105 1    
    97   50   51 1    
    98   50   52 1    
    99   50  106 1    
   100   51  107 1    
   101   51  108 1    
   102   51  109 1    
   103   52   53 2    
   104   52   54 am   BACKBONE|DICT|INTERRES
   105   54   55 1    
   106   54  110 1    
   107   55   56 1    
   108   55   59 1    
   109   55  111 1    
   110   56   57 am   BACKBONE|DICT|INTERRES
   111   56   58 2    
   112   57  112 1    
   113   57  113 1    
   114   59   60 1    
   115   59  114 1    
   116   59  115 1    
   117   60   61 1    
   118   61  116 1    
   119   61  117 1    
@<TRIPOS>SUBSTRUCTURE
     1 UNK         1 GROUP             0       ****    0 ROOT    
