@<TRIPOS>MOLECULE
3R8
117   119    1
SMALL
USER_CHARGES


@<TRIPOS>ATOM
      1 CA         21.4757  -22.9297  -47.3540 C.3       0 UNK        -0.2013 
      2 C          21.5527  -23.7792  -46.0943 C.2       0 UNK         0.4866 
      3 O          22.0849  -23.3252  -45.0814 O.2       0 UNK        -0.5176 
      4 N          21.0271  -25.0102  -46.1495 N.am      1 UNK        -0.4884 
      5 CA         21.0265  -25.9694  -45.0380 C.3       1 UNK         0.0853 
      6 C6         20.5940  -27.3839  -45.4972 C.3       10 UNK        -0.0849 
      7 S7         21.7054  -28.1623  -46.7134 S.3       10 UNK        -0.2776 
      8 C8         20.6289  -29.4534  -47.4407 C.3       10 UNK         0.0316 
      9 C9         19.7275  -30.1386  -46.4161 C.ar      10 UNK        -0.0863 
     10 C10        20.2812  -30.8539  -45.3495 C.ar      10 UNK        -0.1009 
     11 C11        19.4570  -31.4132  -44.3681 C.ar      10 UNK        -0.0712 
     12 C12        18.0692  -31.2994  -44.4826 C.ar      10 UNK        -0.0894 
     13 C13        17.5034  -30.5827  -45.5406 C.ar      10 UNK        -0.0745 
     14 C14        18.3366  -30.0130  -46.5088 C.ar      10 UNK        -0.0972 
     15 C15        15.9955  -30.3858  -45.6142 C.3       10 UNK         0.0209 
     16 S16        15.5011  -28.7245  -45.0432 S.3       10 UNK        -0.2568 
     17 C17        15.7915  -28.8205  -43.2406 C.3       10 UNK        -0.0983 
     18 CA         17.2030  -28.3185  -42.8342 C.3       3 UNK         0.0876 
     19 N          17.4991  -26.9614  -43.2948 N.am      3 UNK        -0.4424 
     20 C          17.1263  -25.7858  -42.7715 C.2       2 UNK         0.4918 
     21 O          16.2888  -25.6635  -41.8774 O.2       2 UNK        -0.4875 
     22 CA         17.8577  -24.5342  -43.3192 C.3       2 UNK         0.0481 
     23 CB         18.2849  -23.5874  -42.1782 C.3       2 UNK        -0.1831 
     24 N          19.0100  -24.8381  -44.1913 N.am      2 UNK        -0.4498 
     25 C          20.1023  -25.5569  -43.8762 C.2       1 UNK         0.5027 
     26 O          20.3169  -26.0098  -42.7499 O.2       1 UNK        -0.4969 
     27 C          17.5461  -28.5431  -41.3426 C.2       3 UNK         0.5005 
     28 O          16.8320  -29.2783  -40.6569 O.2       3 UNK        -0.5279 
     29 N          18.6325  -27.9123  -40.8647 N.am      4 UNK        -0.4463 
     30 CA         19.0945  -28.0072  -39.4763 C.3       4 UNK         0.0283 
     31 CB         18.1526  -27.2242  -38.5384 C.3       4 UNK        -0.1875 
     32 C          20.5391  -27.5270  -39.2712 C.2       4 UNK         0.4949 
     33 O          21.2048  -28.0349  -38.3689 O.2       4 UNK        -0.5039 
     34 N          20.9958  -26.5396  -40.0550 N.am      5 UNK        -0.4663 
     35 CA         22.2927  -25.8820  -39.8636 C.3       5 UNK         0.0242 
     36 CB         22.2115  -24.4439  -40.4040 C.3       5 UNK        -0.1982 
     37 C          23.4640  -26.6334  -40.5159 C.2       5 UNK         0.5017 
     38 O          24.6060  -26.4301  -40.1004 O.2       5 UNK        -0.5012 
     39 N          23.1783  -27.4642  -41.5272 N.am      6 UNK        -0.4439 
     40 CA         24.1715  -28.2814  -42.2251 C.3       6 UNK         0.0297 
     41 CB         23.5729  -28.8046  -43.5398 C.3       6 UNK        -0.2006 
     42 C          24.6525  -29.4530  -41.3567 C.2       6 UNK         0.4892 
     43 O          23.8441  -30.0737  -40.6644 O.2       6 UNK        -0.5089 
     44 N          25.9476  -29.7817  -41.4660 N.am      7 UNK        -0.4243 
     45 CA         26.5806  -30.9216  -40.7880 C.3       7 UNK         0.0196 
     46 CB         28.0983  -30.8792  -41.0268 C.3       7 UNK        -0.2007 
     47 C          26.0053  -32.2846  -41.2150 C.2       7 UNK         0.5020 
     48 O          26.0082  -33.2235  -40.4185 O.2       7 UNK        -0.5147 
     49 N          25.4760  -32.3521  -42.4454 N.am      8 UNK        -0.4734 
     50 CA         24.7517  -33.4973  -43.0035 C.3       8 UNK         0.0238 
     51 CB         24.4277  -33.2097  -44.4793 C.3       8 UNK        -0.1912 
     52 C          23.4634  -33.8583  -42.2399 C.2       8 UNK         0.5038 
     53 O          23.0171  -35.0019  -42.3387 O.2       8 UNK        -0.5046 
     54 N          22.8919  -32.8960  -41.5019 N.am      9 UNK        -0.4200 
     55 CA         21.7146  -33.0943  -40.6456 C.3       9 UNK         0.0839 
     56 C          22.0330  -33.7955  -39.2920 C.2       9 UNK         0.5513 
     57 N          23.2914  -34.0209  -38.9286 N.am      9 UNK        -0.7519 
     58 O          21.1144  -34.1516  -38.5587 O.2       9 UNK        -0.4960 
     59 C59        20.9368  -31.7699  -40.4143 C.3       10 UNK        -0.0876 
     60 S60        20.4970  -30.8137  -41.9101 S.3       10 UNK        -0.2414 
     61 C61        20.0661  -32.0785  -43.1472 C.3       10 UNK         0.0169 
     62 H62        22.4777  -22.6548  -47.6823 H         1 UNK         0.0903 
     63 H63        20.9837  -23.4556  -48.1720 H         1 UNK         0.0903 
     64 H64        20.9190  -22.0142  -47.1557 H         1 UNK         0.0903 
     65 H65        20.6359  -25.3463  -47.0188 H         1 UNK         0.3096 
     66 H66        22.0398  -26.0204  -44.6342 H         1 UNK         0.1121 
     67 H67        20.5436  -28.0628  -44.6423 H         1 UNK         0.0849 
     68 H68        19.5887  -27.3506  -45.9225 H         1 UNK         0.0849 
     69 H69        20.0309  -28.9979  -48.2315 H         1 UNK         0.0865 
     70 H70        21.2537  -30.2033  -47.9275 H         1 UNK         0.0865 
     71 H71        21.3561  -30.9282  -45.2549 H         1 UNK         0.1346 
     72 H72        17.4318  -31.7217  -43.7175 H         1 UNK         0.1412 
     73 H73        17.8976  -29.4453  -47.3181 H         1 UNK         0.1426 
     74 H74        15.6654  -30.5150  -46.6460 H         1 UNK         0.0716 
     75 H75        15.4729  -31.1456  -45.0310 H         1 UNK         0.0716 
     76 H76        15.0250  -28.2279  -42.7384 H         1 UNK         0.0695 
     77 H77        15.6372  -29.8524  -42.9205 H         1 UNK         0.0695 
     78 H78        17.9316  -28.9362  -43.3543 H         1 UNK         0.0983 
     79 H79        18.1576  -26.9143  -44.0554 H         1 UNK         0.3095 
     80 H80        17.1346  -24.0050  -43.9411 H         1 UNK         0.0454 
     81 H81        17.4197  -23.2385  -41.6133 H         1 UNK         0.0851 
     82 H82        18.9554  -24.0768  -41.4713 H         1 UNK         0.0851 
     83 H83        18.7937  -22.7046  -42.5649 H         1 UNK         0.0851 
     84 H84        18.9227  -24.5307  -45.1506 H         1 UNK         0.2976 
     85 H85        19.1898  -27.3566  -41.5021 H         1 UNK         0.3116 
     86 H86        19.0750  -29.0608  -39.1885 H         1 UNK         0.0646 
     87 H87        18.5140  -27.2467  -37.5093 H         1 UNK         0.0847 
     88 H88        17.1476  -27.6454  -38.5302 H         1 UNK         0.0847 
     89 H89        18.0730  -26.1776  -38.8346 H         1 UNK         0.0847 
     90 H90        20.4383  -26.1852  -40.8242 H         1 UNK         0.3040 
     91 H91        22.5038  -25.8237  -38.7931 H         1 UNK         0.1015 
     92 H92        21.4062  -23.8846  -39.9276 H         1 UNK         0.0786 
     93 H93        22.0446  -24.4219  -41.4814 H         1 UNK         0.0786 
     94 H94        23.1388  -23.9031  -40.2101 H         1 UNK         0.0786 
     95 H95        22.2085  -27.5960  -41.7742 H         1 UNK         0.3172 
     96 H96        25.0277  -27.6479  -42.4672 H         1 UNK         0.0595 
     97 H97        22.6665  -29.3871  -43.3739 H         1 UNK         0.0839 
     98 H98        24.2785  -29.4454  -44.0698 H         1 UNK         0.0839 
     99 H99        23.3280  -27.9830  -44.2101 H         1 UNK         0.0839 
    100 H100       26.5430  -29.2220  -42.0603 H         1 UNK         0.2998 
    101 H101       26.3970  -30.8135  -39.7168 H         1 UNK         0.0822 
    102 H102       28.5344  -29.9539  -40.6497 H         1 UNK         0.0787 
    103 H103       28.5967  -31.7026  -40.5128 H         1 UNK         0.0787 
    104 H104       28.3439  -30.9606  -42.0865 H         1 UNK         0.0787 
    105 H105       25.5325  -31.5278  -43.0248 H         1 UNK         0.3055 
    106 H106       25.4112  -34.3665  -42.9527 H         1 UNK         0.1106 
    107 H107       23.9129  -34.0554  -44.9380 H         1 UNK         0.0828 
    108 H108       23.7808  -32.3381  -44.5887 H         1 UNK         0.0828 
    109 H109       25.3336  -33.0330  -45.0594 H         1 UNK         0.0828 
    110 H110       23.3255  -31.9819  -41.4436 H         1 UNK         0.2931 
    111 H111       21.0403  -33.7760  -41.1664 H         1 UNK         0.0412 
    112 H112       23.4748  -34.4801  -38.0504 H         1 UNK         0.3472 
    113 H113       24.0631  -33.7371  -39.5185 H         1 UNK         0.3472 
    114 H114       21.5123  -31.1065  -39.7657 H         1 UNK         0.0970 
    115 H115       20.0082  -31.9729  -39.8777 H         1 UNK         0.0970 
    116 H116       19.3661  -32.7936  -42.7126 H         1 UNK         0.0612 
    117 H117       20.9535  -32.6386  -43.4415 H         1 UNK         0.0612 
@<TRIPOS>BOND
     1    1    2 1    
     2    1   62 1    
     3    1   63 1    
     4    1   64 1    
     5    2    3 2    
     6    2    4 am   BACKBONE|DICT|INTERRES
     7    4    5 1    
     8    4   65 1    
     9    5    6 1    
    10    5   25 1    
    11    5   66 1    
    12    6    7 1    
    13    6   67 1    
    14    6   68 1    
    15    7    8 1    
    16    8    9 1    
    17    8   69 1    
    18    8   70 1    
    19    9   10 ar   
    20    9   14 ar   
    21   10   11 ar   
    22   10   71 1    
    23   11   12 ar   
    24   11   61 1    
    25   12   13 ar   
    26   12   72 1    
    27   13   14 ar   
    28   13   15 1    
    29   14   73 1    
    30   15   16 1    
    31   15   74 1    
    32   15   75 1    
    33   16   17 1    
    34   17   18 1    
    35   17   76 1    
    36   17   77 1    
    37   18   19 1    
    38   18   27 1    
    39   18   78 1    
    40   19   20 am   BACKBONE|DICT|INTERRES
    41   19   79 1    
    42   20   21 2    
    43   20   22 1    
    44   22   23 1    
    45   22   24 1    
    46   22   80 1    
    47   23   81 1    
    48   23   82 1    
    49   23   83 1    
    50   24   25 am   BACKBONE|DICT|INTERRES
    51   24   84 1    
    52   25   26 2    
    53   27   28 2    
    54   27   29 am   BACKBONE|DICT|INTERRES
    55   29   30 1    
    56   29   85 1    
    57   30   31 1    
    58   30   32 1    
    59   30   86 1    
    60   31   87 1    
    61   31   88 1    
    62   31   89 1    
    63   32   33 2    
    64   32   34 am   BACKBONE|DICT|INTERRES
    65   34   35 1    
    66   34   90 1    
    67   35   36 1    
    68   35   37 1    
    69   35   91 1    
    70   36   92 1    
    71   36   93 1    
    72   36   94 1    
    73   37   38 2    
    74   37   39 am   BACKBONE|DICT|INTERRES
    75   39   40 1    
    76   39   95 1    
    77   40   41 1    
    78   40   42 1    
    79   40   96 1    
    80   41   97 1    
    81   41   98 1    
    82   41   99 1    
    83   42   43 2    
    84   42   44 am   BACKBONE|DICT|INTERRES
    85   44   45 1    
    86   44  100 1    
    87   45   46 1    
    88   45   47 1    
    89   45  101 1    
    90   46  102 1    
    91   46  103 1    
    92   46  104 1    
    93   47   48 2    
    94   47   49 am   BACKBONE|DICT|INTERRES
    95   49   50 1    
    96   49  105 1    
    97   50   51 1    
    98   50   52 1    
    99   50  106 1    
   100   51  107 1    
   101   51  108 1    
   102   51  109 1    
   103   52   53 2    
   104   52   54 am   BACKBONE|DICT|INTERRES
   105   54   55 1    
   106   54  110 1    
   107   55   56 1    
   108   55   59 1    
   109   55  111 1    
   110   56   57 am   BACKBONE|DICT|INTERRES
   111   56   58 2    
   112   57  112 1    
   113   57  113 1    
   114   59   60 1    
   115   59  114 1    
   116   59  115 1    
   117   60   61 1    
   118   61  116 1    
   119   61  117 1    
@<TRIPOS>SUBSTRUCTURE
     1 UNK         1 GROUP             0       ****    0 ROOT    
