@<TRIPOS>MOLECULE
3R8
117   119    1
SMALL
USER_CHARGES


@<TRIPOS>ATOM
      1 CA         21.9890  -22.7342  -47.8231 C.3       0 UNK        -0.2013 
      2 C          21.8674  -23.5051  -46.5174 C.2       0 UNK         0.4866 
      3 O          22.0479  -22.9265  -45.4460 O.2       0 UNK        -0.5176 
      4 N          21.5673  -24.8078  -46.5993 N.am      1 UNK        -0.4884 
      5 CA         21.3657  -25.7035  -45.4534 C.3       1 UNK         0.0853 
      6 C6         21.3659  -27.1973  -45.8780 C.3       10 UNK        -0.0849 
      7 S7         20.2074  -27.5745  -47.2424 S.3       10 UNK        -0.2776 
      8 C8         20.3327  -29.3866  -47.3430 C.3       10 UNK         0.0316 
      9 C9         19.5687  -30.0794  -46.2234 C.ar      10 UNK        -0.0863 
     10 C10        20.2529  -30.7752  -45.2225 C.ar      10 UNK        -0.1009 
     11 C11        19.5484  -31.4595  -44.2266 C.ar      10 UNK        -0.0712 
     12 C12        18.1509  -31.4278  -44.2240 C.ar      10 UNK        -0.0894 
     13 C13        17.4567  -30.7140  -45.2046 C.ar      10 UNK        -0.0745 
     14 C14        18.1709  -30.0552  -46.2103 C.ar      10 UNK        -0.0972 
     15 C15        15.9367  -30.6514  -45.1771 C.3       10 UNK         0.0209 
     16 S16        15.3335  -28.9575  -44.8883 S.3       10 UNK        -0.2568 
     17 C17        15.8405  -28.6440  -43.1596 C.3       10 UNK        -0.0983 
     18 CA         17.2672  -28.0380  -43.0048 C.3       3 UNK         0.0876 
     19 N          17.5503  -26.9385  -43.9376 N.am      3 UNK        -0.4424 
     20 C          17.0061  -25.7125  -43.9445 C.2       2 UNK         0.4918 
     21 O          16.0504  -25.3842  -43.2401 O.2       2 UNK        -0.4875 
     22 CA         17.6718  -24.6579  -44.8593 C.3       2 UNK         0.0481 
     23 CB         17.7244  -23.2725  -44.1829 C.3       2 UNK        -0.1831 
     24 N          19.0100  -25.0196  -45.3570 N.am      2 UNK        -0.4498 
     25 C          20.1006  -25.3528  -44.6444 C.2       1 UNK         0.5027 
     26 O          20.1251  -25.4295  -43.4149 O.2       1 UNK        -0.4969 
     27 C          17.5903  -27.6637  -41.5333 C.2       3 UNK         0.5005 
     28 O          17.0252  -28.2575  -40.6127 O.2       3 UNK        -0.5279 
     29 N          18.4706  -26.6718  -41.3266 N.am      4 UNK        -0.4463 
     30 CA         18.6914  -25.9892  -40.0533 C.3       4 UNK         0.0283 
     31 CB         18.5663  -24.4716  -40.2893 C.3       4 UNK        -0.1875 
     32 C          20.0477  -26.3817  -39.4523 C.2       4 UNK         0.4949 
     33 O          20.9214  -25.5277  -39.2937 O.2       4 UNK        -0.5039 
     34 N          20.1865  -27.6734  -39.1191 N.am      5 UNK        -0.4663 
     35 CA         21.3356  -28.2871  -38.4352 C.3       5 UNK         0.0242 
     36 CB         21.4145  -27.8011  -36.9715 C.3       5 UNK        -0.1982 
     37 C          22.6658  -28.1130  -39.1976 C.2       5 UNK         0.5017 
     38 O          23.6753  -27.7168  -38.6105 O.2       5 UNK        -0.5012 
     39 N          22.6280  -28.4109  -40.5029 N.am      6 UNK        -0.4439 
     40 CA         23.7818  -28.4267  -41.4067 C.3       6 UNK         0.0297 
     41 CB         23.2578  -28.5006  -42.8533 C.3       6 UNK        -0.2006 
     42 C          24.7672  -29.5760  -41.0998 C.2       6 UNK         0.4892 
     43 O          24.4990  -30.4171  -40.2368 O.2       6 UNK        -0.5089 
     44 N          25.8908  -29.6065  -41.8300 N.am      7 UNK        -0.4243 
     45 CA         26.9231  -30.6447  -41.7404 C.3       7 UNK         0.0196 
     46 CB         28.0615  -30.3202  -42.7221 C.3       7 UNK        -0.2007 
     47 C          26.3529  -32.0511  -42.0044 C.2       7 UNK         0.5020 
     48 O          25.8179  -32.2947  -43.0873 O.2       7 UNK        -0.5147 
     49 N          26.4537  -32.9240  -40.9914 N.am      8 UNK        -0.4734 
     50 CA         25.9266  -34.2969  -40.9318 C.3       8 UNK         0.0238 
     51 CB         26.5997  -35.1942  -41.9934 C.3       8 UNK        -0.1912 
     52 C          24.3847  -34.3998  -40.9674 C.2       8 UNK         0.5038 
     53 O          23.8626  -35.4892  -41.2123 O.2       8 UNK        -0.5046 
     54 N          23.6801  -33.2892  -40.7127 N.am      9 UNK        -0.4200 
     55 CA         22.2155  -33.2235  -40.6216 C.3       9 UNK         0.0839 
     56 C          21.6762  -33.8391  -39.3013 C.2       9 UNK         0.5513 
     57 N          20.4485  -34.3386  -39.3069 N.am      9 UNK        -0.7519 
     58 O          22.3445  -33.8425  -38.2692 O.2       9 UNK        -0.4960 
     59 C59        21.7375  -31.7628  -40.8276 C.3       10 UNK        -0.0876 
     60 S60        20.0553  -31.5920  -41.5003 S.3       10 UNK        -0.2414 
     61 C61        20.2956  -32.2641  -43.1760 C.3       10 UNK         0.0169 
     62 H62        22.9871  -22.3068  -47.9149 H         1 UNK         0.0903 
     63 H63        21.8113  -23.3697  -48.6906 H         1 UNK         0.0903 
     64 H64        21.2658  -21.9194  -47.8461 H         1 UNK         0.0903 
     65 H65        21.4333  -25.2353  -47.5059 H         1 UNK         0.3096 
     66 H66        22.2096  -25.5550  -44.7752 H         1 UNK         0.1121 
     67 H67        22.3689  -27.4795  -46.2022 H         1 UNK         0.0849 
     68 H68        21.1386  -27.8435  -45.0280 H         1 UNK         0.0849 
     69 H69        19.9263  -29.7126  -48.3015 H         1 UNK         0.0865 
     70 H70        21.3836  -29.6805  -47.3450 H         1 UNK         0.0865 
     71 H71        21.3340  -30.8038  -45.2323 H         1 UNK         0.1346 
     72 H72        17.6076  -31.9524  -43.4498 H         1 UNK         0.1412 
     73 H73        17.6367  -29.5119  -46.9783 H         1 UNK         0.1426 
     74 H74        15.5500  -31.0045  -46.1340 H         1 UNK         0.0716 
     75 H75        15.5262  -31.3163  -44.4155 H         1 UNK         0.0716 
     76 H76        15.7609  -29.5764  -42.5978 H         1 UNK         0.0695 
     77 H77        15.0998  -27.9693  -42.7267 H         1 UNK         0.0695 
     78 H78        17.9869  -28.8172  -43.2530 H         1 UNK         0.0983 
     79 H79        18.3048  -27.1093  -44.5858 H         1 UNK         0.3095 
     80 H80        17.0327  -24.5758  -45.7394 H         1 UNK         0.0454 
     81 H81        18.1661  -22.5256  -44.8425 H         1 UNK         0.0851 
     82 H82        18.3105  -23.2948  -43.2639 H         1 UNK         0.0851 
     83 H83        16.7254  -22.9204  -43.9231 H         1 UNK         0.0851 
     84 H84        19.1081  -25.0307  -46.3633 H         1 UNK         0.2976 
     85 H85        18.9599  -26.2733  -42.1249 H         1 UNK         0.3116 
     86 H86        17.9241  -26.2708  -39.3291 H         1 UNK         0.0646 
     87 H87        19.3172  -24.1088  -40.9925 H         1 UNK         0.0847 
     88 H88        17.5846  -24.2129  -40.6869 H         1 UNK         0.0847 
     89 H89        18.6951  -23.9183  -39.3582 H         1 UNK         0.0847 
     90 H90        19.4076  -28.2889  -39.3168 H         1 UNK         0.3040 
     91 H91        21.1424  -29.3605  -38.4073 H         1 UNK         0.1015 
     92 H92        21.6416  -26.7362  -36.9091 H         1 UNK         0.0786 
     93 H93        22.1951  -28.3320  -36.4250 H         1 UNK         0.0786 
     94 H94        20.4766  -27.9754  -36.4442 H         1 UNK         0.0786 
     95 H95        21.7469  -28.7139  -40.8896 H         1 UNK         0.3172 
     96 H96        24.3216  -27.4860  -41.2804 H         1 UNK         0.0595 
     97 H97        22.7197  -29.4289  -43.0479 H         1 UNK         0.0839 
     98 H98        24.0691  -28.4378  -43.5792 H         1 UNK         0.0839 
     99 H99        22.5815  -27.6720  -43.0627 H         1 UNK         0.0839 
    100 H100       26.0312  -28.8951  -42.5322 H         1 UNK         0.2998 
    101 H101       27.3310  -30.6114  -40.7279 H         1 UNK         0.0822 
    102 H102       28.8500  -31.0720  -42.6660 H         1 UNK         0.0787 
    103 H103       27.7096  -30.2944  -43.7544 H         1 UNK         0.0787 
    104 H104       28.5183  -29.3560  -42.4979 H         1 UNK         0.0787 
    105 H105       26.8889  -32.5992  -40.1379 H         1 UNK         0.3055 
    106 H106       26.2152  -34.6837  -39.9530 H         1 UNK         0.1106 
    107 H107       27.6862  -35.1248  -41.9420 H         1 UNK         0.0828 
    108 H108       26.3382  -36.2426  -41.8442 H         1 UNK         0.0828 
    109 H109       26.2931  -34.9268  -43.0049 H         1 UNK         0.0828 
    110 H110       24.1763  -32.4325  -40.4917 H         1 UNK         0.2931 
    111 H111       21.8307  -33.8298  -41.4436 H         1 UNK         0.0412 
    112 H112       19.8818  -34.3066  -40.1402 H         1 UNK         0.3472 
    113 H113       20.0731  -34.7334  -38.4586 H         1 UNK         0.3472 
    114 H114       21.8161  -31.1938  -39.9003 H         1 UNK         0.0970 
    115 H115       22.3915  -31.2600  -41.5387 H         1 UNK         0.0970 
    116 H116       21.3590  -32.2987  -43.4180 H         1 UNK         0.0612 
    117 H117       19.9459  -33.2971  -43.1960 H         1 UNK         0.0612 
@<TRIPOS>BOND
     1    1    2 1    
     2    1   62 1    
     3    1   63 1    
     4    1   64 1    
     5    2    3 2    
     6    2    4 am   BACKBONE|DICT|INTERRES
     7    4    5 1    
     8    4   65 1    
     9    5    6 1    
    10    5   25 1    
    11    5   66 1    
    12    6    7 1    
    13    6   67 1    
    14    6   68 1    
    15    7    8 1    
    16    8    9 1    
    17    8   69 1    
    18    8   70 1    
    19    9   10 ar   
    20    9   14 ar   
    21   10   11 ar   
    22   10   71 1    
    23   11   12 ar   
    24   11   61 1    
    25   12   13 ar   
    26   12   72 1    
    27   13   14 ar   
    28   13   15 1    
    29   14   73 1    
    30   15   16 1    
    31   15   74 1    
    32   15   75 1    
    33   16   17 1    
    34   17   18 1    
    35   17   76 1    
    36   17   77 1    
    37   18   19 1    
    38   18   27 1    
    39   18   78 1    
    40   19   20 am   BACKBONE|DICT|INTERRES
    41   19   79 1    
    42   20   21 2    
    43   20   22 1    
    44   22   23 1    
    45   22   24 1    
    46   22   80 1    
    47   23   81 1    
    48   23   82 1    
    49   23   83 1    
    50   24   25 am   BACKBONE|DICT|INTERRES
    51   24   84 1    
    52   25   26 2    
    53   27   28 2    
    54   27   29 am   BACKBONE|DICT|INTERRES
    55   29   30 1    
    56   29   85 1    
    57   30   31 1    
    58   30   32 1    
    59   30   86 1    
    60   31   87 1    
    61   31   88 1    
    62   31   89 1    
    63   32   33 2    
    64   32   34 am   BACKBONE|DICT|INTERRES
    65   34   35 1    
    66   34   90 1    
    67   35   36 1    
    68   35   37 1    
    69   35   91 1    
    70   36   92 1    
    71   36   93 1    
    72   36   94 1    
    73   37   38 2    
    74   37   39 am   BACKBONE|DICT|INTERRES
    75   39   40 1    
    76   39   95 1    
    77   40   41 1    
    78   40   42 1    
    79   40   96 1    
    80   41   97 1    
    81   41   98 1    
    82   41   99 1    
    83   42   43 2    
    84   42   44 am   BACKBONE|DICT|INTERRES
    85   44   45 1    
    86   44  100 1    
    87   45   46 1    
    88   45   47 1    
    89   45  101 1    
    90   46  102 1    
    91   46  103 1    
    92   46  104 1    
    93   47   48 2    
    94   47   49 am   BACKBONE|DICT|INTERRES
    95   49   50 1    
    96   49  105 1    
    97   50   51 1    
    98   50   52 1    
    99   50  106 1    
   100   51  107 1    
   101   51  108 1    
   102   51  109 1    
   103   52   53 2    
   104   52   54 am   BACKBONE|DICT|INTERRES
   105   54   55 1    
   106   54  110 1    
   107   55   56 1    
   108   55   59 1    
   109   55  111 1    
   110   56   57 am   BACKBONE|DICT|INTERRES
   111   56   58 2    
   112   57  112 1    
   113   57  113 1    
   114   59   60 1    
   115   59  114 1    
   116   59  115 1    
   117   60   61 1    
   118   61  116 1    
   119   61  117 1    
@<TRIPOS>SUBSTRUCTURE
     1 UNK         1 GROUP             0       ****    0 ROOT    
