@<TRIPOS>MOLECULE
3R8
117   119    1
SMALL
USER_CHARGES


@<TRIPOS>ATOM
      1 CA         18.8825  -28.9563  -41.9539 C.3       0 UNK        -0.2013 
      2 C          18.0233  -27.7805  -42.3834 C.2       0 UNK         0.4866 
      3 O          17.7954  -26.8673  -41.5882 O.2       0 UNK        -0.5176 
      4 N          17.5570  -27.7740  -43.6390 N.am      1 UNK        -0.4884 
      5 CA         16.8168  -26.6647  -44.2555 C.3       1 UNK         0.0853 
      6 C6         15.9357  -27.1230  -45.4471 C.3       10 UNK        -0.0849 
      7 S7         14.7738  -28.4610  -45.0029 S.3       10 UNK        -0.2776 
      8 C8         15.3304  -29.8205  -46.0830 C.3       10 UNK         0.0316 
      9 C9         16.6713  -30.3955  -45.6462 C.ar      10 UNK        -0.0863 
     10 C10        16.7240  -31.4034  -44.6792 C.ar      10 UNK        -0.1009 
     11 C11        17.9490  -31.9635  -44.3040 C.ar      10 UNK        -0.0712 
     12 C12        19.1297  -31.4873  -44.8834 C.ar      10 UNK        -0.0894 
     13 C13        19.0957  -30.4568  -45.8276 C.ar      10 UNK        -0.0745 
     14 C14        17.8588  -29.9390  -46.2255 C.ar      10 UNK        -0.0972 
     15 C15        20.3870  -29.9334  -46.4484 C.3       10 UNK         0.0209 
     16 S16        20.4910  -28.1115  -46.4036 S.3       10 UNK        -0.2568 
     17 C17        21.8201  -27.7901  -45.1953 C.3       10 UNK        -0.0983 
     18 CA         22.3159  -26.3203  -45.3098 C.3       3 UNK         0.0876 
     19 N          21.2606  -25.3441  -44.9792 N.am      3 UNK        -0.4424 
     20 C          20.8047  -25.0420  -43.7537 C.2       2 UNK         0.4918 
     21 O          21.2794  -25.4942  -42.7114 O.2       2 UNK        -0.4875 
     22 CA         19.6013  -24.0906  -43.6576 C.3       2 UNK         0.0481 
     23 CB         19.5953  -22.9549  -44.7057 C.3       2 UNK        -0.1831 
     24 N          18.3696  -24.8812  -43.6461 N.am      2 UNK        -0.4498 
     25 C          17.8239  -25.5675  -44.6606 C.2       1 UNK         0.5027 
     26 O          18.1377  -25.4210  -45.8431 O.2       1 UNK        -0.4969 
     27 C          23.6298  -26.0477  -44.5389 C.2       3 UNK         0.5005 
     28 O          24.2449  -26.9682  -43.9932 O.2       3 UNK        -0.5279 
     29 N          23.9864  -24.7541  -44.4482 N.am      4 UNK        -0.4463 
     30 CA         25.1240  -24.1711  -43.7192 C.3       4 UNK         0.0283 
     31 CB         26.4513  -24.5926  -44.3849 C.3       4 UNK        -0.1875 
     32 C          25.1355  -24.4564  -42.2005 C.2       4 UNK         0.4949 
     33 O          26.1713  -24.2604  -41.5642 O.2       4 UNK        -0.5039 
     34 N          24.0115  -24.9522  -41.6554 N.am      5 UNK        -0.4663 
     35 CA         23.8485  -25.5511  -40.3235 C.3       5 UNK         0.0242 
     36 CB         24.0388  -24.4961  -39.2131 C.3       5 UNK        -0.1982 
     37 C          24.7192  -26.8097  -40.1046 C.2       5 UNK         0.5017 
     38 O          24.9322  -27.2047  -38.9571 O.2       5 UNK        -0.5012 
     39 N          25.2118  -27.4150  -41.1960 N.am      6 UNK        -0.4439 
     40 CA         26.1083  -28.5702  -41.1772 C.3       6 UNK         0.0297 
     41 CB         27.0342  -28.5054  -42.4027 C.3       6 UNK        -0.2006 
     42 C          25.3414  -29.8993  -41.1548 C.2       6 UNK         0.4892 
     43 O          25.8542  -30.8790  -40.6121 O.2       6 UNK        -0.5089 
     44 N          24.1406  -29.9190  -41.7483 N.am      7 UNK        -0.4243 
     45 CA         23.2656  -31.0864  -41.7897 C.3       7 UNK         0.0196 
     46 CB         22.2493  -30.9276  -42.9298 C.3       7 UNK        -0.2007 
     47 C          22.5521  -31.2787  -40.4442 C.2       7 UNK         0.5020 
     48 O          21.7541  -30.4257  -40.0524 O.2       7 UNK        -0.5147 
     49 N          22.8396  -32.4006  -39.7738 N.am      8 UNK        -0.4734 
     50 CA         22.1583  -32.8198  -38.5441 C.3       8 UNK         0.0238 
     51 CB         23.1009  -33.7193  -37.7274 C.3       8 UNK        -0.1912 
     52 C          20.8295  -33.5466  -38.8223 C.2       8 UNK         0.5038 
     53 O          19.9782  -33.5952  -37.9339 O.2       8 UNK        -0.5046 
     54 N          20.6879  -34.1041  -40.0345 N.am      9 UNK        -0.4200 
     55 CA         19.5226  -34.8608  -40.5289 C.3       9 UNK         0.0839 
     56 C          19.2778  -36.2249  -39.8126 C.2       9 UNK         0.5513 
     57 N          20.2508  -36.7818  -39.1013 N.am      9 UNK        -0.7519 
     58 O          18.2026  -36.8080  -39.9280 O.2       9 UNK        -0.4960 
     59 C59        18.2297  -34.0009  -40.6377 C.3       10 UNK        -0.0876 
     60 S60        18.4529  -32.4912  -41.6384 S.3       10 UNK        -0.2414 
     61 C61        17.9940  -33.0962  -43.2893 C.3       10 UNK         0.0169 
     62 H62        19.8517  -28.6049  -41.5999 H         1 UNK         0.0903 
     63 H63        18.4000  -29.4969  -41.1405 H         1 UNK         0.0903 
     64 H64        19.0555  -29.6522  -42.7726 H         1 UNK         0.0903 
     65 H65        17.7588  -28.5531  -44.2527 H         1 UNK         0.3096 
     66 H66        16.1460  -26.2341  -43.5082 H         1 UNK         0.1121 
     67 H67        16.5492  -27.4341  -46.2922 H         1 UNK         0.0849 
     68 H68        15.3441  -26.2816  -45.8126 H         1 UNK         0.0849 
     69 H69        14.5753  -30.6081  -46.0700 H         1 UNK         0.0865 
     70 H70        15.3795  -29.4724  -47.1160 H         1 UNK         0.0865 
     71 H71        15.8081  -31.7634  -44.2305 H         1 UNK         0.1346 
     72 H72        20.0743  -31.9262  -44.6002 H         1 UNK         0.1412 
     73 H73        17.8275  -29.1719  -46.9869 H         1 UNK         0.1426 
     74 H74        20.4266  -30.2578  -47.4889 H         1 UNK         0.0716 
     75 H75        21.2595  -30.3677  -45.9589 H         1 UNK         0.0716 
     76 H76        22.6345  -28.4894  -45.3929 H         1 UNK         0.0695 
     77 H77        21.4543  -28.0043  -44.1899 H         1 UNK         0.0695 
     78 H78        22.5720  -26.1466  -46.3564 H         1 UNK         0.0983 
     79 H79        20.7616  -24.9615  -45.7703 H         1 UNK         0.3095 
     80 H80        19.6585  -23.6157  -42.6769 H         1 UNK         0.0454 
     81 H81        18.7460  -22.2893  -44.5527 H         1 UNK         0.0851 
     82 H82        19.5488  -23.3131  -45.7333 H         1 UNK         0.0851 
     83 H83        20.4970  -22.3477  -44.6184 H         1 UNK         0.0851 
     84 H84        18.0764  -25.1767  -42.7193 H         1 UNK         0.2976 
     85 H85        23.3847  -24.0829  -44.9064 H         1 UNK         0.3116 
     86 H86        25.0292  -23.0890  -43.8208 H         1 UNK         0.0646 
     87 H87        26.6438  -25.6591  -44.2629 H         1 UNK         0.0847 
     88 H88        26.4485  -24.3724  -45.4522 H         1 UNK         0.0847 
     89 H89        27.2976  -24.0593  -43.9503 H         1 UNK         0.0847 
     90 H90        23.2048  -25.0690  -42.2613 H         1 UNK         0.3040 
     91 H91        22.8141  -25.8964  -40.2761 H         1 UNK         0.1015 
     92 H92        23.7602  -24.8993  -38.2387 H         1 UNK         0.0786 
     93 H93        23.4157  -23.6192  -39.3884 H         1 UNK         0.0786 
     94 H94        25.0747  -24.1640  -39.1407 H         1 UNK         0.0786 
     95 H95        24.9556  -27.0533  -42.1109 H         1 UNK         0.3172 
     96 H96        26.7323  -28.5282  -40.2818 H         1 UNK         0.0595 
     97 H97        26.4733  -28.5478  -43.3374 H         1 UNK         0.0839 
     98 H98        27.7371  -29.3397  -42.4055 H         1 UNK         0.0839 
     99 H99        27.6214  -27.5868  -42.4068 H         1 UNK         0.0839 
    100 H100       23.7860  -29.0631  -42.1499 H         1 UNK         0.2998 
    101 H101       23.8710  -31.9696  -42.0062 H         1 UNK         0.0822 
    102 H102       21.5840  -31.7903  -42.9605 H         1 UNK         0.0787 
    103 H103       21.6283  -30.0408  -42.8018 H         1 UNK         0.0787 
    104 H104       22.7438  -30.8572  -43.8986 H         1 UNK         0.0787 
    105 H105       23.5489  -33.0214  -40.1390 H         1 UNK         0.3055 
    106 H106       21.9257  -31.9365  -37.9442 H         1 UNK         0.1106 
    107 H107       24.0193  -33.1942  -37.4641 H         1 UNK         0.0828 
    108 H108       22.6303  -34.0317  -36.7939 H         1 UNK         0.0828 
    109 H109       23.3752  -34.6233  -38.2723 H         1 UNK         0.0828 
    110 H110       21.4511  -34.0099  -40.6866 H         1 UNK         0.2931 
    111 H111       19.7916  -35.1451  -41.5468 H         1 UNK         0.0412 
    112 H112       20.0875  -37.6690  -38.6511 H         1 UNK         0.3472 
    113 H113       21.1429  -36.3242  -39.0072 H         1 UNK         0.3472 
    114 H114       17.4121  -34.5828  -41.0665 H         1 UNK         0.0970 
    115 H115       17.8889  -33.7036  -39.6449 H         1 UNK         0.0970 
    116 H116       17.0238  -33.5926  -43.2378 H         1 UNK         0.0612 
    117 H117       18.7129  -33.8518  -43.6092 H         1 UNK         0.0612 
@<TRIPOS>BOND
     1    1    2 1    
     2    1   62 1    
     3    1   63 1    
     4    1   64 1    
     5    2    3 2    
     6    2    4 am   BACKBONE|DICT|INTERRES
     7    4    5 1    
     8    4   65 1    
     9    5    6 1    
    10    5   25 1    
    11    5   66 1    
    12    6    7 1    
    13    6   67 1    
    14    6   68 1    
    15    7    8 1    
    16    8    9 1    
    17    8   69 1    
    18    8   70 1    
    19    9   10 ar   
    20    9   14 ar   
    21   10   11 ar   
    22   10   71 1    
    23   11   12 ar   
    24   11   61 1    
    25   12   13 ar   
    26   12   72 1    
    27   13   14 ar   
    28   13   15 1    
    29   14   73 1    
    30   15   16 1    
    31   15   74 1    
    32   15   75 1    
    33   16   17 1    
    34   17   18 1    
    35   17   76 1    
    36   17   77 1    
    37   18   19 1    
    38   18   27 1    
    39   18   78 1    
    40   19   20 am   BACKBONE|DICT|INTERRES
    41   19   79 1    
    42   20   21 2    
    43   20   22 1    
    44   22   23 1    
    45   22   24 1    
    46   22   80 1    
    47   23   81 1    
    48   23   82 1    
    49   23   83 1    
    50   24   25 am   BACKBONE|DICT|INTERRES
    51   24   84 1    
    52   25   26 2    
    53   27   28 2    
    54   27   29 am   BACKBONE|DICT|INTERRES
    55   29   30 1    
    56   29   85 1    
    57   30   31 1    
    58   30   32 1    
    59   30   86 1    
    60   31   87 1    
    61   31   88 1    
    62   31   89 1    
    63   32   33 2    
    64   32   34 am   BACKBONE|DICT|INTERRES
    65   34   35 1    
    66   34   90 1    
    67   35   36 1    
    68   35   37 1    
    69   35   91 1    
    70   36   92 1    
    71   36   93 1    
    72   36   94 1    
    73   37   38 2    
    74   37   39 am   BACKBONE|DICT|INTERRES
    75   39   40 1    
    76   39   95 1    
    77   40   41 1    
    78   40   42 1    
    79   40   96 1    
    80   41   97 1    
    81   41   98 1    
    82   41   99 1    
    83   42   43 2    
    84   42   44 am   BACKBONE|DICT|INTERRES
    85   44   45 1    
    86   44  100 1    
    87   45   46 1    
    88   45   47 1    
    89   45  101 1    
    90   46  102 1    
    91   46  103 1    
    92   46  104 1    
    93   47   48 2    
    94   47   49 am   BACKBONE|DICT|INTERRES
    95   49   50 1    
    96   49  105 1    
    97   50   51 1    
    98   50   52 1    
    99   50  106 1    
   100   51  107 1    
   101   51  108 1    
   102   51  109 1    
   103   52   53 2    
   104   52   54 am   BACKBONE|DICT|INTERRES
   105   54   55 1    
   106   54  110 1    
   107   55   56 1    
   108   55   59 1    
   109   55  111 1    
   110   56   57 am   BACKBONE|DICT|INTERRES
   111   56   58 2    
   112   57  112 1    
   113   57  113 1    
   114   59   60 1    
   115   59  114 1    
   116   59  115 1    
   117   60   61 1    
   118   61  116 1    
   119   61  117 1    
@<TRIPOS>SUBSTRUCTURE
     1 UNK         1 GROUP             0       ****    0 ROOT    
