@<TRIPOS>MOLECULE
3R8
117   119    1
SMALL
USER_CHARGES


@<TRIPOS>ATOM
      1 CA         11.7379  -25.1364  -44.0314 C.3       0 UNK        -0.2013 
      2 C          12.9963  -25.0976  -44.8859 C.2       0 UNK         0.4866 
      3 O          13.2182  -24.1201  -45.6009 O.2       0 UNK        -0.5176 
      4 N          13.8090  -26.1589  -44.8236 N.am      1 UNK        -0.4884 
      5 CA         15.0961  -26.2900  -45.5098 C.3       1 UNK         0.0853 
      6 C6         15.3617  -27.7580  -45.9467 C.3       10 UNK        -0.0849 
      7 S7         15.1924  -29.0092  -44.6170 S.3       10 UNK        -0.2776 
      8 C8         16.3709  -30.2914  -45.1463 C.3       10 UNK         0.0316 
      9 C9         17.8219  -29.8569  -44.9854 C.ar      10 UNK        -0.0863 
     10 C10        18.4622  -29.9700  -43.7469 C.ar      10 UNK        -0.1009 
     11 C11        19.8166  -29.6434  -43.6163 C.ar      10 UNK        -0.0712 
     12 C12        20.5226  -29.1793  -44.7295 C.ar      10 UNK        -0.0894 
     13 C13        19.8840  -29.0293  -45.9635 C.ar      10 UNK        -0.0745 
     14 C14        18.5387  -29.3831  -46.0877 C.ar      10 UNK        -0.0972 
     15 C15        20.6429  -28.5042  -47.1724 C.3       10 UNK         0.0209 
     16 S16        20.5146  -26.6919  -47.3072 S.3       10 UNK        -0.2568 
     17 C17        21.7330  -26.1474  -46.0624 C.3       10 UNK        -0.0983 
     18 CA         21.1336  -25.2859  -44.9195 C.3       3 UNK         0.0876 
     19 N          19.9564  -25.9124  -44.2956 N.am      3 UNK        -0.4424 
     20 C          19.1067  -25.2899  -43.4677 C.2       2 UNK         0.4918 
     21 O          19.2158  -24.1072  -43.1404 O.2       2 UNK        -0.4875 
     22 CA         17.9648  -26.1515  -42.9000 C.3       2 UNK         0.0481 
     23 CB         17.3039  -25.5141  -41.6601 C.3       2 UNK        -0.1831 
     24 N          16.9481  -26.4889  -43.9003 N.am      2 UNK        -0.4498 
     25 C          16.2047  -25.6536  -44.6419 C.2       1 UNK         0.5027 
     26 O          16.3353  -24.4286  -44.6409 O.2       1 UNK        -0.4969 
     27 C          22.2543  -24.9217  -43.9137 C.2       3 UNK         0.5005 
     28 O          23.1983  -24.2318  -44.3021 O.2       3 UNK        -0.5279 
     29 N          22.1541  -25.4125  -42.6661 N.am      4 UNK        -0.4463 
     30 CA         23.1381  -25.3111  -41.5789 C.3       4 UNK         0.0283 
     31 CB         23.3798  -23.8435  -41.1646 C.3       4 UNK        -0.1875 
     32 C          24.4370  -26.0791  -41.8932 C.2       4 UNK         0.4949 
     33 O          25.5308  -25.6221  -41.5565 O.2       4 UNK        -0.5039 
     34 N          24.2824  -27.2416  -42.5404 N.am      5 UNK        -0.4663 
     35 CA         25.3587  -28.1775  -42.8601 C.3       5 UNK         0.0242 
     36 CB         24.8357  -29.1911  -43.8930 C.3       5 UNK        -0.1982 
     37 C          25.8606  -28.9106  -41.6052 C.2       5 UNK         0.5017 
     38 O          25.0857  -29.1333  -40.6710 O.2       5 UNK        -0.5012 
     39 N          27.1336  -29.3238  -41.6304 N.am      6 UNK        -0.4439 
     40 CA         27.7577  -30.1717  -40.6127 C.3       6 UNK         0.0297 
     41 CB         29.2811  -29.9453  -40.6333 C.3       6 UNK        -0.2006 
     42 C          27.3743  -31.6428  -40.8547 C.2       6 UNK         0.4892 
     43 O          28.1927  -32.4245  -41.3433 O.2       6 UNK        -0.5089 
     44 N          26.1150  -31.9730  -40.5570 N.am      7 UNK        -0.4243 
     45 CA         25.4960  -33.2736  -40.7860 C.3       7 UNK         0.0196 
     46 CB         24.8893  -33.2998  -42.2023 C.3       7 UNK        -0.2007 
     47 C          24.4315  -33.5332  -39.7134 C.2       7 UNK         0.5020 
     48 O          24.0837  -32.6299  -38.9477 O.2       7 UNK        -0.5147 
     49 N          23.9100  -34.7672  -39.6969 N.am      8 UNK        -0.4734 
     50 CA         22.9062  -35.2641  -38.7449 C.3       8 UNK         0.0238 
     51 CB         22.7123  -36.7734  -38.9685 C.3       8 UNK        -0.1912 
     52 C          21.5474  -34.5364  -38.7813 C.2       8 UNK         0.5038 
     53 O          20.7687  -34.6829  -37.8380 O.2       8 UNK        -0.5046 
     54 N          21.2878  -33.7679  -39.8470 N.am      9 UNK        -0.4200 
     55 CA         20.1389  -32.8612  -39.9718 C.3       9 UNK         0.0839 
     56 C          20.1599  -31.6429  -38.9993 C.2       9 UNK         0.5513 
     57 N          21.2862  -31.3017  -38.3817 N.am      9 UNK        -0.7519 
     58 O          19.1306  -31.0033  -38.8002 O.2       9 UNK        -0.4960 
     59 C59        19.9203  -32.4286  -41.4454 C.3       10 UNK        -0.0876 
     60 S60        21.3002  -31.4424  -42.1327 S.3       10 UNK        -0.2414 
     61 C61        20.5320  -29.7988  -42.2827 C.3       10 UNK         0.0169 
     62 H62        11.6595  -26.0619  -43.4611 H         1 UNK         0.0903 
     63 H63        11.7366  -24.3040  -43.3280 H         1 UNK         0.0903 
     64 H64        10.8532  -25.0512  -44.6619 H         1 UNK         0.0903 
     65 H65        13.5755  -26.9307  -44.2135 H         1 UNK         0.3096 
     66 H66        15.0641  -25.6962  -46.4267 H         1 UNK         0.1121 
     67 H67        16.3416  -27.8265  -46.4173 H         1 UNK         0.0849 
     68 H68        14.6520  -28.0267  -46.7308 H         1 UNK         0.0849 
     69 H69        16.1966  -31.1917  -44.5549 H         1 UNK         0.0865 
     70 H70        16.1637  -30.5696  -46.1810 H         1 UNK         0.0865 
     71 H71        17.9085  -30.3322  -42.8921 H         1 UNK         0.1346 
     72 H72        21.5730  -28.9440  -44.6332 H         1 UNK         0.1412 
     73 H73        18.0533  -29.2965  -47.0504 H         1 UNK         0.1426 
     74 H74        20.2391  -28.9500  -48.0827 H         1 UNK         0.0716 
     75 H75        21.6910  -28.8052  -47.1319 H         1 UNK         0.0716 
     76 H76        22.2568  -27.0136  -45.6574 H         1 UNK         0.0695 
     77 H77        22.4939  -25.5752  -46.5969 H         1 UNK         0.0695 
     78 H78        20.7970  -24.3436  -45.3578 H         1 UNK         0.0983 
     79 H79        19.7715  -26.8709  -44.5598 H         1 UNK         0.3095 
     80 H80        18.4086  -27.0956  -42.5808 H         1 UNK         0.0454 
     81 H81        18.0430  -25.3139  -40.8835 H         1 UNK         0.0851 
     82 H82        16.8189  -24.5667  -41.8979 H         1 UNK         0.0851 
     83 H83        16.5521  -26.1748  -41.2286 H         1 UNK         0.0851 
     84 H84        16.7448  -27.4772  -43.9980 H         1 UNK         0.2976 
     85 H85        21.3270  -25.9510  -42.4542 H         1 UNK         0.3116 
     86 H86        22.6931  -25.8183  -40.7215 H         1 UNK         0.0646 
     87 H87        23.9884  -23.7899  -40.2612 H         1 UNK         0.0847 
     88 H88        22.4417  -23.3306  -40.9533 H         1 UNK         0.0847 
     89 H89        23.9034  -23.2815  -41.9383 H         1 UNK         0.0847 
     90 H90        23.3447  -27.5509  -42.7411 H         1 UNK         0.3040 
     91 H91        26.1864  -27.6146  -43.2979 H         1 UNK         0.1015 
     92 H92        24.4911  -28.6939  -44.8000 H         1 UNK         0.0786 
     93 H93        24.0073  -29.7811  -43.4967 H         1 UNK         0.0786 
     94 H94        25.6188  -29.8912  -44.1872 H         1 UNK         0.0786 
     95 H95        27.6882  -29.1350  -42.4536 H         1 UNK         0.3172 
     96 H96        27.3917  -29.8850  -39.6242 H         1 UNK         0.0595 
     97 H97        29.7764  -30.5669  -39.8861 H         1 UNK         0.0839 
     98 H98        29.5307  -28.9085  -40.4069 H         1 UNK         0.0839 
     99 H99        29.7178  -30.1912  -41.6022 H         1 UNK         0.0839 
    100 H100       25.5056  -31.2738  -40.1439 H         1 UNK         0.2998 
    101 H101       26.2514  -34.0576  -40.6971 H         1 UNK         0.0822 
    102 H102       25.6563  -33.1500  -42.9624 H         1 UNK         0.0787 
    103 H103       24.4086  -34.2545  -42.4177 H         1 UNK         0.0787 
    104 H104       24.1404  -32.5176  -42.3311 H         1 UNK         0.0787 
    105 H105       24.2487  -35.4375  -40.3731 H         1 UNK         0.3055 
    106 H106       23.3089  -35.1160  -37.7403 H         1 UNK         0.1106 
    107 H107       22.3321  -36.9877  -39.9681 H         1 UNK         0.0828 
    108 H108       23.6472  -37.3190  -38.8387 H         1 UNK         0.0828 
    109 H109       21.9991  -37.1874  -38.2539 H         1 UNK         0.0828 
    110 H110       21.9926  -33.6890  -40.5643 H         1 UNK         0.2931 
    111 H111       19.2600  -33.4436  -39.6881 H         1 UNK         0.0412 
    112 H112       21.2859  -30.5145  -37.7532 H         1 UNK         0.3472 
    113 H113       22.1480  -31.8025  -38.5634 H         1 UNK         0.3472 
    114 H114       18.9823  -31.8807  -41.5365 H         1 UNK         0.0970 
    115 H115       19.7957  -33.3127  -42.0723 H         1 UNK         0.0970 
    116 H116       21.3137  -29.0432  -42.1927 H         1 UNK         0.0612 
    117 H117       19.8464  -29.6224  -41.4524 H         1 UNK         0.0612 
@<TRIPOS>BOND
     1    1    2 1    
     2    1   62 1    
     3    1   63 1    
     4    1   64 1    
     5    2    3 2    
     6    2    4 am   BACKBONE|DICT|INTERRES
     7    4    5 1    
     8    4   65 1    
     9    5    6 1    
    10    5   25 1    
    11    5   66 1    
    12    6    7 1    
    13    6   67 1    
    14    6   68 1    
    15    7    8 1    
    16    8    9 1    
    17    8   69 1    
    18    8   70 1    
    19    9   10 ar   
    20    9   14 ar   
    21   10   11 ar   
    22   10   71 1    
    23   11   12 ar   
    24   11   61 1    
    25   12   13 ar   
    26   12   72 1    
    27   13   14 ar   
    28   13   15 1    
    29   14   73 1    
    30   15   16 1    
    31   15   74 1    
    32   15   75 1    
    33   16   17 1    
    34   17   18 1    
    35   17   76 1    
    36   17   77 1    
    37   18   19 1    
    38   18   27 1    
    39   18   78 1    
    40   19   20 am   BACKBONE|DICT|INTERRES
    41   19   79 1    
    42   20   21 2    
    43   20   22 1    
    44   22   23 1    
    45   22   24 1    
    46   22   80 1    
    47   23   81 1    
    48   23   82 1    
    49   23   83 1    
    50   24   25 am   BACKBONE|DICT|INTERRES
    51   24   84 1    
    52   25   26 2    
    53   27   28 2    
    54   27   29 am   BACKBONE|DICT|INTERRES
    55   29   30 1    
    56   29   85 1    
    57   30   31 1    
    58   30   32 1    
    59   30   86 1    
    60   31   87 1    
    61   31   88 1    
    62   31   89 1    
    63   32   33 2    
    64   32   34 am   BACKBONE|DICT|INTERRES
    65   34   35 1    
    66   34   90 1    
    67   35   36 1    
    68   35   37 1    
    69   35   91 1    
    70   36   92 1    
    71   36   93 1    
    72   36   94 1    
    73   37   38 2    
    74   37   39 am   BACKBONE|DICT|INTERRES
    75   39   40 1    
    76   39   95 1    
    77   40   41 1    
    78   40   42 1    
    79   40   96 1    
    80   41   97 1    
    81   41   98 1    
    82   41   99 1    
    83   42   43 2    
    84   42   44 am   BACKBONE|DICT|INTERRES
    85   44   45 1    
    86   44  100 1    
    87   45   46 1    
    88   45   47 1    
    89   45  101 1    
    90   46  102 1    
    91   46  103 1    
    92   46  104 1    
    93   47   48 2    
    94   47   49 am   BACKBONE|DICT|INTERRES
    95   49   50 1    
    96   49  105 1    
    97   50   51 1    
    98   50   52 1    
    99   50  106 1    
   100   51  107 1    
   101   51  108 1    
   102   51  109 1    
   103   52   53 2    
   104   52   54 am   BACKBONE|DICT|INTERRES
   105   54   55 1    
   106   54  110 1    
   107   55   56 1    
   108   55   59 1    
   109   55  111 1    
   110   56   57 am   BACKBONE|DICT|INTERRES
   111   56   58 2    
   112   57  112 1    
   113   57  113 1    
   114   59   60 1    
   115   59  114 1    
   116   59  115 1    
   117   60   61 1    
   118   61  116 1    
   119   61  117 1    
@<TRIPOS>SUBSTRUCTURE
     1 UNK         1 GROUP             0       ****    0 ROOT    
