@<TRIPOS>MOLECULE
3R8
117   119    1
SMALL
USER_CHARGES


@<TRIPOS>ATOM
      1 CA         15.3442  -30.6685  -42.1607 C.3       0 UNK        -0.2013 
      2 C          15.5282  -29.1694  -42.3311 C.2       0 UNK         0.4866 
      3 O          15.0518  -28.3976  -41.4978 O.2       0 UNK        -0.5176 
      4 N          16.1942  -28.7496  -43.4142 N.am      1 UNK        -0.4884 
      5 CA         16.4501  -27.3408  -43.7359 C.3       1 UNK         0.0853 
      6 C6         16.7709  -27.1065  -45.2391 C.3       10 UNK        -0.0849 
      7 S7         15.6816  -28.0434  -46.3796 S.3       10 UNK        -0.2776 
      8 C8         16.8367  -29.1395  -47.2807 C.3       10 UNK         0.0316 
      9 C9         17.7685  -29.9030  -46.3487 C.ar      10 UNK        -0.0863 
     10 C10        17.3146  -31.0131  -45.6318 C.ar      10 UNK        -0.1009 
     11 C11        18.1569  -31.6573  -44.7194 C.ar      10 UNK        -0.0712 
     12 C12        19.4558  -31.1717  -44.5209 C.ar      10 UNK        -0.0894 
     13 C13        19.9278  -30.0717  -45.2426 C.ar      10 UNK        -0.0745 
     14 C14        19.0854  -29.4688  -46.1814 C.ar      10 UNK        -0.0972 
     15 C15        21.3441  -29.5497  -45.0046 C.3       10 UNK         0.0209 
     16 S16        21.4495  -27.7243  -45.0490 S.3       10 UNK        -0.2568 
     17 C17        22.3128  -27.3276  -43.4967 C.3       10 UNK        -0.0983 
     18 CA         21.9855  -25.8895  -43.0240 C.3       3 UNK         0.0876 
     19 N          20.5908  -25.7627  -42.5964 N.am      3 UNK        -0.4424 
     20 C          19.9459  -24.6100  -42.3909 C.2       2 UNK         0.4918 
     21 O          20.4287  -23.5061  -42.6518 O.2       2 UNK        -0.4875 
     22 CA         18.5232  -24.7146  -41.8002 C.3       2 UNK         0.0481 
     23 CB         17.9180  -23.3355  -41.4764 C.3       2 UNK        -0.1831 
     24 N          17.5899  -25.4486  -42.6618 N.am      2 UNK        -0.4498 
     25 C          17.5690  -26.7776  -42.8327 C.2       1 UNK         0.5027 
     26 O          18.3956  -27.5397  -42.3214 O.2       1 UNK        -0.4969 
     27 C          22.9409  -25.4571  -41.8928 C.2       3 UNK         0.5005 
     28 O          22.6792  -25.7522  -40.7232 O.2       3 UNK        -0.5279 
     29 N          24.0333  -24.7796  -42.2706 N.am      4 UNK        -0.4463 
     30 CA         25.1140  -24.3632  -41.3696 C.3       4 UNK         0.0283 
     31 CB         25.3558  -22.8524  -41.5248 C.3       4 UNK        -0.1875 
     32 C          26.4118  -25.1409  -41.6418 C.2       4 UNK         0.4949 
     33 O          27.1650  -25.4014  -40.7040 O.2       4 UNK        -0.5039 
     34 N          26.6532  -25.5070  -42.9097 N.am      5 UNK        -0.4663 
     35 CA         27.8311  -26.2636  -43.3534 C.3       5 UNK         0.0242 
     36 CB         28.1020  -25.9282  -44.8302 C.3       5 UNK        -0.1982 
     37 C          27.6875  -27.7864  -43.1654 C.2       5 UNK         0.5017 
     38 O          28.6625  -28.5123  -43.3644 O.2       5 UNK        -0.5012 
     39 N          26.4853  -28.2436  -42.8049 N.am      6 UNK        -0.4439 
     40 CA         26.1191  -29.6311  -42.5516 C.3       6 UNK         0.0297 
     41 CB         25.6582  -30.2895  -43.8653 C.3       6 UNK        -0.2006 
     42 C          24.9970  -29.6381  -41.5085 C.2       6 UNK         0.4892 
     43 O          24.3812  -28.5963  -41.2705 O.2       6 UNK        -0.5089 
     44 N          24.7410  -30.8097  -40.9171 N.am      7 UNK        -0.4243 
     45 CA         23.6135  -31.0372  -40.0124 C.3       7 UNK         0.0196 
     46 CB         23.8439  -32.3485  -39.2430 C.3       7 UNK        -0.2007 
     47 C          22.2880  -31.1026  -40.7875 C.2       7 UNK         0.5020 
     48 O          22.2709  -31.5348  -41.9428 O.2       7 UNK        -0.5147 
     49 N          21.1860  -30.7432  -40.1194 N.am      8 UNK        -0.4734 
     50 CA         19.8179  -30.8040  -40.6477 C.3       8 UNK         0.0238 
     51 CB         18.9348  -29.8245  -39.8522 C.3       8 UNK        -0.1912 
     52 C          19.2558  -32.2436  -40.6550 C.2       8 UNK         0.5038 
     53 O          18.1713  -32.4835  -40.1209 O.2       8 UNK        -0.5046 
     54 N          20.0087  -33.1703  -41.2621 N.am      9 UNK        -0.4200 
     55 CA         19.7432  -34.6157  -41.3568 C.3       9 UNK         0.0839 
     56 C          19.7032  -35.3186  -39.9635 C.2       9 UNK         0.5513 
     57 N          19.0811  -36.4847  -39.8441 N.am      9 UNK        -0.7519 
     58 O          20.2879  -34.8451  -38.9907 O.2       9 UNK        -0.4960 
     59 C59        18.5353  -34.9517  -42.2838 C.3       10 UNK        -0.0876 
     60 S60        18.7412  -34.2820  -43.9713 S.3       10 UNK        -0.2414 
     61 C61        17.6387  -32.8346  -43.9045 C.3       10 UNK         0.0169 
     62 H62        14.3683  -30.8824  -41.7255 H         1 UNK         0.0903 
     63 H63        15.3999  -31.1870  -43.1166 H         1 UNK         0.0903 
     64 H64        16.1073  -31.0703  -41.4952 H         1 UNK         0.0903 
     65 H65        16.5977  -29.4158  -44.0588 H         1 UNK         0.3096 
     66 H66        15.5354  -26.7888  -43.5071 H         1 UNK         0.1121 
     67 H67        16.6521  -26.0476  -45.4749 H         1 UNK         0.0849 
     68 H68        17.8161  -27.3210  -45.4541 H         1 UNK         0.0849 
     69 H69        16.2611  -29.8459  -47.8806 H         1 UNK         0.0865 
     70 H70        17.4109  -28.5408  -47.9897 H         1 UNK         0.0865 
     71 H71        16.2982  -31.3574  -45.7689 H         1 UNK         0.1346 
     72 H72        20.1038  -31.6565  -43.8038 H         1 UNK         0.1412 
     73 H73        19.4398  -28.6219  -46.7526 H         1 UNK         0.1426 
     74 H74        22.0022  -29.9571  -45.7728 H         1 UNK         0.0716 
     75 H75        21.7242  -29.9170  -44.0508 H         1 UNK         0.0716 
     76 H76        22.0436  -28.0516  -42.7246 H         1 UNK         0.0695 
     77 H77        23.3823  -27.4500  -43.6785 H         1 UNK         0.0695 
     78 H78        22.1318  -25.2084  -43.8657 H         1 UNK         0.0983 
     79 H79        20.0941  -26.6242  -42.3903 H         1 UNK         0.3095 
     80 H80        18.6135  -25.2577  -40.8569 H         1 UNK         0.0454 
     81 H81        18.5652  -22.7732  -40.8018 H         1 UNK         0.0851 
     82 H82        17.7813  -22.7319  -42.3746 H         1 UNK         0.0851 
     83 H83        16.9499  -23.4312  -40.9847 H         1 UNK         0.0851 
     84 H84        16.9036  -24.8875  -43.1460 H         1 UNK         0.2976 
     85 H85        24.1371  -24.5405  -43.2463 H         1 UNK         0.3116 
     86 H86        24.8372  -24.5516  -40.3300 H         1 UNK         0.0646 
     87 H87        26.1476  -22.5135  -40.8552 H         1 UNK         0.0847 
     88 H88        24.4599  -22.2820  -41.2790 H         1 UNK         0.0847 
     89 H89        25.6530  -22.5884  -42.5405 H         1 UNK         0.0847 
     90 H90        25.9968  -25.2473  -43.6297 H         1 UNK         0.3040 
     91 H91        28.6980  -25.9486  -42.7678 H         1 UNK         0.1015 
     92 H92        27.2756  -26.2340  -45.4730 H         1 UNK         0.0786 
     93 H93        28.9983  -26.4363  -45.1892 H         1 UNK         0.0786 
     94 H94        28.2618  -24.8590  -44.9718 H         1 UNK         0.0786 
     95 H95        25.7600  -27.5791  -42.5655 H         1 UNK         0.3172 
     96 H96        26.9759  -30.1710  -42.1428 H         1 UNK         0.0595 
     97 H97        25.3791  -31.3321  -43.7082 H         1 UNK         0.0839 
     98 H98        24.7896  -29.7809  -44.2862 H         1 UNK         0.0839 
     99 H99        26.4494  -30.2767  -44.6150 H         1 UNK         0.0839 
    100 H100       25.2669  -31.6244  -41.1983 H         1 UNK         0.2998 
    101 H101       23.5656  -30.2115  -39.2986 H         1 UNK         0.0822 
    102 H102       23.0311  -32.5397  -38.5407 H         1 UNK         0.0787 
    103 H103       23.8997  -33.2065  -39.9145 H         1 UNK         0.0787 
    104 H104       24.7677  -32.3130  -38.6651 H         1 UNK         0.0787 
    105 H105       21.2790  -30.4459  -39.1583 H         1 UNK         0.3055 
    106 H106       19.8294  -30.4582  -41.6838 H         1 UNK         0.1106 
    107 H107       18.8522  -30.1112  -38.8033 H         1 UNK         0.0828 
    108 H108       19.3305  -28.8095  -39.8961 H         1 UNK         0.0828 
    109 H109       17.9252  -29.7869  -40.2629 H         1 UNK         0.0828 
    110 H110       20.8957  -32.8592  -41.6457 H         1 UNK         0.2931 
    111 H111       20.6338  -35.0251  -41.8349 H         1 UNK         0.0412 
    112 H112       19.0788  -36.9443  -38.9465 H         1 UNK         0.3472 
    113 H113       18.6178  -36.9181  -40.6267 H         1 UNK         0.3472 
    114 H114       17.5990  -34.6030  -41.8447 H         1 UNK         0.0970 
    115 H115       18.4282  -36.0310  -42.3967 H         1 UNK         0.0970 
    116 H116       17.5208  -32.5021  -42.8756 H         1 UNK         0.0612 
    117 H117       16.6487  -33.1425  -44.2440 H         1 UNK         0.0612 
@<TRIPOS>BOND
     1    1    2 1    
     2    1   62 1    
     3    1   63 1    
     4    1   64 1    
     5    2    3 2    
     6    2    4 am   BACKBONE|DICT|INTERRES
     7    4    5 1    
     8    4   65 1    
     9    5    6 1    
    10    5   25 1    
    11    5   66 1    
    12    6    7 1    
    13    6   67 1    
    14    6   68 1    
    15    7    8 1    
    16    8    9 1    
    17    8   69 1    
    18    8   70 1    
    19    9   10 ar   
    20    9   14 ar   
    21   10   11 ar   
    22   10   71 1    
    23   11   12 ar   
    24   11   61 1    
    25   12   13 ar   
    26   12   72 1    
    27   13   14 ar   
    28   13   15 1    
    29   14   73 1    
    30   15   16 1    
    31   15   74 1    
    32   15   75 1    
    33   16   17 1    
    34   17   18 1    
    35   17   76 1    
    36   17   77 1    
    37   18   19 1    
    38   18   27 1    
    39   18   78 1    
    40   19   20 am   BACKBONE|DICT|INTERRES
    41   19   79 1    
    42   20   21 2    
    43   20   22 1    
    44   22   23 1    
    45   22   24 1    
    46   22   80 1    
    47   23   81 1    
    48   23   82 1    
    49   23   83 1    
    50   24   25 am   BACKBONE|DICT|INTERRES
    51   24   84 1    
    52   25   26 2    
    53   27   28 2    
    54   27   29 am   BACKBONE|DICT|INTERRES
    55   29   30 1    
    56   29   85 1    
    57   30   31 1    
    58   30   32 1    
    59   30   86 1    
    60   31   87 1    
    61   31   88 1    
    62   31   89 1    
    63   32   33 2    
    64   32   34 am   BACKBONE|DICT|INTERRES
    65   34   35 1    
    66   34   90 1    
    67   35   36 1    
    68   35   37 1    
    69   35   91 1    
    70   36   92 1    
    71   36   93 1    
    72   36   94 1    
    73   37   38 2    
    74   37   39 am   BACKBONE|DICT|INTERRES
    75   39   40 1    
    76   39   95 1    
    77   40   41 1    
    78   40   42 1    
    79   40   96 1    
    80   41   97 1    
    81   41   98 1    
    82   41   99 1    
    83   42   43 2    
    84   42   44 am   BACKBONE|DICT|INTERRES
    85   44   45 1    
    86   44  100 1    
    87   45   46 1    
    88   45   47 1    
    89   45  101 1    
    90   46  102 1    
    91   46  103 1    
    92   46  104 1    
    93   47   48 2    
    94   47   49 am   BACKBONE|DICT|INTERRES
    95   49   50 1    
    96   49  105 1    
    97   50   51 1    
    98   50   52 1    
    99   50  106 1    
   100   51  107 1    
   101   51  108 1    
   102   51  109 1    
   103   52   53 2    
   104   52   54 am   BACKBONE|DICT|INTERRES
   105   54   55 1    
   106   54  110 1    
   107   55   56 1    
   108   55   59 1    
   109   55  111 1    
   110   56   57 am   BACKBONE|DICT|INTERRES
   111   56   58 2    
   112   57  112 1    
   113   57  113 1    
   114   59   60 1    
   115   59  114 1    
   116   59  115 1    
   117   60   61 1    
   118   61  116 1    
   119   61  117 1    
@<TRIPOS>SUBSTRUCTURE
     1 UNK         1 GROUP             0       ****    0 ROOT    
