@<TRIPOS>MOLECULE
3R8
117   119    1
SMALL
USER_CHARGES


@<TRIPOS>ATOM
      1 CA         16.3943  -24.9255  -46.1360 C.3       0 UNK        -0.2013 
      2 C          15.3422  -24.7572  -45.0444 C.2       0 UNK         0.4866 
      3 O          14.9108  -23.6337  -44.7935 O.2       0 UNK        -0.5176 
      4 N          14.9048  -25.8203  -44.3572 N.am      1 UNK        -0.4884 
      5 CA         15.3119  -27.2233  -44.5110 C.3       1 UNK         0.0853 
      6 C6         14.1871  -28.0878  -45.1431 C.3       10 UNK        -0.0849 
      7 S7         14.1447  -27.8566  -46.9534 S.3       10 UNK        -0.2776 
      8 C8         15.0415  -29.3286  -47.5593 C.3       10 UNK         0.0316 
      9 C9         16.3712  -29.5536  -46.8459 C.ar      10 UNK        -0.0863 
     10 C10        16.4867  -30.5696  -45.8933 C.ar      10 UNK        -0.1009 
     11 C11        17.6883  -30.7943  -45.2161 C.ar      10 UNK        -0.0712 
     12 C12        18.7921  -29.9793  -45.5093 C.ar      10 UNK        -0.0894 
     13 C13        18.6937  -28.9612  -46.4633 C.ar      10 UNK        -0.0745 
     14 C14        17.4822  -28.7554  -47.1322 C.ar      10 UNK        -0.0972 
     15 C15        19.9017  -28.0974  -46.7947 C.3       10 UNK         0.0209 
     16 S16        19.9594  -26.5974  -45.7657 S.3       10 UNK        -0.2568 
     17 C17        21.1721  -27.0391  -44.4750 C.3       10 UNK        -0.0983 
     18 CA         20.7773  -26.4502  -43.0983 C.3       3 UNK         0.0876 
     19 N          19.5485  -27.0637  -42.5837 N.am      3 UNK        -0.4424 
     20 C          18.8648  -26.6601  -41.5039 C.2       2 UNK         0.4918 
     21 O          19.2438  -25.7781  -40.7325 O.2       2 UNK        -0.4875 
     22 CA         17.4731  -27.2870  -41.3411 C.3       2 UNK         0.0481 
     23 CB         16.7278  -26.8158  -40.0785 C.3       2 UNK        -0.1831 
     24 N          16.7040  -26.9525  -42.5355 N.am      2 UNK        -0.4498 
     25 C          15.8314  -27.7509  -43.1600 C.2       1 UNK         0.5027 
     26 O          15.4616  -28.8395  -42.7179 O.2       1 UNK        -0.4969 
     27 C          21.9681  -26.4955  -42.1187 C.2       3 UNK         0.5005 
     28 O          22.7204  -25.5216  -42.0547 O.2       3 UNK        -0.5279 
     29 N          22.1231  -27.6124  -41.3899 N.am      4 UNK        -0.4463 
     30 CA         23.2106  -27.9014  -40.4423 C.3       4 UNK         0.0283 
     31 CB         23.1153  -26.9925  -39.1997 C.3       4 UNK        -0.1875 
     32 C          24.6092  -27.8843  -41.0943 C.2       4 UNK         0.4949 
     33 O          25.5868  -27.5075  -40.4445 O.2       4 UNK        -0.5039 
     34 N          24.6841  -28.3067  -42.3643 N.am      5 UNK        -0.4663 
     35 CA         25.8966  -28.3528  -43.1843 C.3       5 UNK         0.0242 
     36 CB         25.4942  -28.5980  -44.6493 C.3       5 UNK        -0.1982 
     37 C          26.8476  -29.4402  -42.6634 C.2       5 UNK         0.5017 
     38 O          26.6325  -30.6173  -42.9491 O.2       5 UNK        -0.5012 
     39 N          27.8185  -29.0396  -41.8290 N.am      6 UNK        -0.4439 
     40 CA         28.6508  -29.9141  -40.9881 C.3       6 UNK         0.0297 
     41 CB         29.6213  -30.7560  -41.8444 C.3       6 UNK        -0.2006 
     42 C          27.7915  -30.7659  -40.0270 C.2       6 UNK         0.4892 
     43 O          28.0624  -31.9522  -39.8371 O.2       6 UNK        -0.5089 
     44 N          26.7438  -30.1293  -39.4798 N.am      7 UNK        -0.4243 
     45 CA         25.6806  -30.6704  -38.6253 C.3       7 UNK         0.0196 
     46 CB         26.2471  -31.3554  -37.3638 C.3       7 UNK        -0.2007 
     47 C          24.6474  -31.5562  -39.3508 C.2       7 UNK         0.5020 
     48 O          23.7018  -32.0005  -38.6970 O.2       7 UNK        -0.5147 
     49 N          24.7786  -31.7752  -40.6700 N.am      8 UNK        -0.4734 
     50 CA         23.7838  -32.4944  -41.4739 C.3       8 UNK         0.0238 
     51 CB         24.3485  -32.8197  -42.8659 C.3       8 UNK        -0.1912 
     52 C          22.4979  -31.6628  -41.5865 C.2       8 UNK         0.5038 
     53 O          22.5421  -30.5542  -42.1256 O.2       8 UNK        -0.5046 
     54 N          21.4002  -32.1988  -41.0406 N.am      9 UNK        -0.4200 
     55 CA         20.1089  -31.5137  -40.8566 C.3       9 UNK         0.0839 
     56 C          20.1344  -30.4329  -39.7328 C.2       9 UNK         0.5513 
     57 N          21.1081  -30.4335  -38.8293 N.am      9 UNK        -0.7519 
     58 O          19.2475  -29.5889  -39.6621 O.2       9 UNK        -0.4960 
     59 C59        19.4754  -30.9961  -42.1832 C.3       10 UNK        -0.0876 
     60 S60        19.3424  -32.3070  -43.4482 S.3       10 UNK        -0.2414 
     61 C61        17.7212  -31.9390  -44.1992 C.3       10 UNK         0.0169 
     62 H62        16.0720  -25.6409  -46.8909 H         1 UNK         0.0903 
     63 H63        16.5780  -23.9769  -46.6400 H         1 UNK         0.0903 
     64 H64        17.3379  -25.2613  -45.7098 H         1 UNK         0.0903 
     65 H65        14.2256  -25.6618  -43.6249 H         1 UNK         0.3096 
     66 H66        16.1892  -27.2970  -45.1528 H         1 UNK         0.1121 
     67 H67        13.2146  -27.8217  -44.7257 H         1 UNK         0.0849 
     68 H68        14.3110  -29.1511  -44.9359 H         1 UNK         0.0849 
     69 H69        14.3968  -30.2023  -47.4505 H         1 UNK         0.0865 
     70 H70        15.2189  -29.2186  -48.6301 H         1 UNK         0.0865 
     71 H71        15.6305  -31.1928  -45.6721 H         1 UNK         0.1346 
     72 H72        19.7391  -30.1336  -45.0140 H         1 UNK         0.1412 
     73 H73        17.4004  -27.9685  -47.8701 H         1 UNK         0.1426 
     74 H74        19.8574  -27.7949  -47.8422 H         1 UNK         0.0716 
     75 H75        20.8256  -28.6685  -46.6900 H         1 UNK         0.0716 
     76 H76        22.1412  -26.6551  -44.8008 H         1 UNK         0.0695 
     77 H77        21.2781  -28.1237  -44.4104 H         1 UNK         0.0695 
     78 H78        20.5554  -25.3900  -43.2417 H         1 UNK         0.0983 
     79 H79        19.1253  -27.7570  -43.1821 H         1 UNK         0.3095 
     80 H80        17.6065  -28.3681  -41.2838 H         1 UNK         0.0454 
     81 H81        16.5612  -25.7381  -40.0848 H         1 UNK         0.0851 
     82 H82        17.2988  -27.0563  -39.1808 H         1 UNK         0.0851 
     83 H83        15.7582  -27.3050  -39.9864 H         1 UNK         0.0851 
     84 H84        16.9301  -26.0643  -42.9629 H         1 UNK         0.2976 
     85 H85        21.4761  -28.3729  -41.5454 H         1 UNK         0.3116 
     86 H86        23.0571  -28.9245  -40.1018 H         1 UNK         0.0646 
     87 H87        23.3285  -25.9512  -39.4423 H         1 UNK         0.0847 
     88 H88        23.8280  -27.2998  -38.4335 H         1 UNK         0.0847 
     89 H89        22.1218  -27.0364  -38.7533 H         1 UNK         0.0847 
     90 H90        23.8471  -28.7077  -42.7680 H         1 UNK         0.3040 
     91 H91        26.3968  -27.3835  -43.1252 H         1 UNK         0.1015 
     92 H92        24.9415  -29.5314  -44.7682 H         1 UNK         0.0786 
     93 H93        26.3746  -28.6563  -45.2905 H         1 UNK         0.0786 
     94 H94        24.8692  -27.7893  -45.0289 H         1 UNK         0.0786 
     95 H95        27.8819  -28.0505  -41.6240 H         1 UNK         0.3172 
     96 H96        29.2521  -29.2565  -40.3585 H         1 UNK         0.0595 
     97 H97        30.3210  -31.3051  -41.2130 H         1 UNK         0.0839 
     98 H98        30.2119  -30.1267  -42.5100 H         1 UNK         0.0839 
     99 H99        29.0950  -31.4898  -42.4558 H         1 UNK         0.0839 
    100 H100       26.6086  -29.1584  -39.7464 H         1 UNK         0.2998 
    101 H101       25.1201  -29.7971  -38.2877 H         1 UNK         0.0822 
    102 H102       25.4503  -31.5874  -36.6560 H         1 UNK         0.0787 
    103 H103       26.7484  -32.2946  -37.5990 H         1 UNK         0.0787 
    104 H104       26.9596  -30.7123  -36.8472 H         1 UNK         0.0787 
    105 H105       25.5569  -31.3667  -41.1737 H         1 UNK         0.3055 
    106 H106       23.5656  -33.4399  -40.9719 H         1 UNK         0.1106 
    107 H107       23.6724  -33.4789  -43.4115 H         1 UNK         0.0828 
    108 H108       24.4767  -31.9227  -43.4726 H         1 UNK         0.0828 
    109 H109       25.3134  -33.3228  -42.8005 H         1 UNK         0.0828 
    110 H110       21.4688  -33.1076  -40.6063 H         1 UNK         0.2931 
    111 H111       19.4383  -32.2826  -40.4714 H         1 UNK         0.0412 
    112 H112       21.8520  -31.1215  -38.8533 H         1 UNK         0.3472 
    113 H113       21.0913  -29.7411  -38.0983 H         1 UNK         0.3472 
    114 H114       18.4785  -30.5978  -41.9868 H         1 UNK         0.0970 
    115 H115       20.0507  -30.1674  -42.5956 H         1 UNK         0.0970 
    116 H116       16.9937  -31.7414  -43.4102 H         1 UNK         0.0612 
    117 H117       17.3853  -32.8479  -44.7005 H         1 UNK         0.0612 
@<TRIPOS>BOND
     1    1    2 1    
     2    1   62 1    
     3    1   63 1    
     4    1   64 1    
     5    2    3 2    
     6    2    4 am   BACKBONE|DICT|INTERRES
     7    4    5 1    
     8    4   65 1    
     9    5    6 1    
    10    5   25 1    
    11    5   66 1    
    12    6    7 1    
    13    6   67 1    
    14    6   68 1    
    15    7    8 1    
    16    8    9 1    
    17    8   69 1    
    18    8   70 1    
    19    9   10 ar   
    20    9   14 ar   
    21   10   11 ar   
    22   10   71 1    
    23   11   12 ar   
    24   11   61 1    
    25   12   13 ar   
    26   12   72 1    
    27   13   14 ar   
    28   13   15 1    
    29   14   73 1    
    30   15   16 1    
    31   15   74 1    
    32   15   75 1    
    33   16   17 1    
    34   17   18 1    
    35   17   76 1    
    36   17   77 1    
    37   18   19 1    
    38   18   27 1    
    39   18   78 1    
    40   19   20 am   BACKBONE|DICT|INTERRES
    41   19   79 1    
    42   20   21 2    
    43   20   22 1    
    44   22   23 1    
    45   22   24 1    
    46   22   80 1    
    47   23   81 1    
    48   23   82 1    
    49   23   83 1    
    50   24   25 am   BACKBONE|DICT|INTERRES
    51   24   84 1    
    52   25   26 2    
    53   27   28 2    
    54   27   29 am   BACKBONE|DICT|INTERRES
    55   29   30 1    
    56   29   85 1    
    57   30   31 1    
    58   30   32 1    
    59   30   86 1    
    60   31   87 1    
    61   31   88 1    
    62   31   89 1    
    63   32   33 2    
    64   32   34 am   BACKBONE|DICT|INTERRES
    65   34   35 1    
    66   34   90 1    
    67   35   36 1    
    68   35   37 1    
    69   35   91 1    
    70   36   92 1    
    71   36   93 1    
    72   36   94 1    
    73   37   38 2    
    74   37   39 am   BACKBONE|DICT|INTERRES
    75   39   40 1    
    76   39   95 1    
    77   40   41 1    
    78   40   42 1    
    79   40   96 1    
    80   41   97 1    
    81   41   98 1    
    82   41   99 1    
    83   42   43 2    
    84   42   44 am   BACKBONE|DICT|INTERRES
    85   44   45 1    
    86   44  100 1    
    87   45   46 1    
    88   45   47 1    
    89   45  101 1    
    90   46  102 1    
    91   46  103 1    
    92   46  104 1    
    93   47   48 2    
    94   47   49 am   BACKBONE|DICT|INTERRES
    95   49   50 1    
    96   49  105 1    
    97   50   51 1    
    98   50   52 1    
    99   50  106 1    
   100   51  107 1    
   101   51  108 1    
   102   51  109 1    
   103   52   53 2    
   104   52   54 am   BACKBONE|DICT|INTERRES
   105   54   55 1    
   106   54  110 1    
   107   55   56 1    
   108   55   59 1    
   109   55  111 1    
   110   56   57 am   BACKBONE|DICT|INTERRES
   111   56   58 2    
   112   57  112 1    
   113   57  113 1    
   114   59   60 1    
   115   59  114 1    
   116   59  115 1    
   117   60   61 1    
   118   61  116 1    
   119   61  117 1    
@<TRIPOS>SUBSTRUCTURE
     1 UNK         1 GROUP             0       ****    0 ROOT    
