@<TRIPOS>MOLECULE
3R8
117   119    1
SMALL
USER_CHARGES


@<TRIPOS>ATOM
      1 CA         16.6914  -28.1816  -41.1634 C.3       0 UNK        -0.2013 
      2 C          17.4497  -27.5723  -42.3323 C.2       0 UNK         0.4866 
      3 O          18.3816  -28.1843  -42.8562 O.2       0 UNK        -0.5176 
      4 N          17.0484  -26.3585  -42.7299 N.am      1 UNK        -0.4884 
      5 CA         17.5335  -25.6199  -43.9052 C.3       1 UNK         0.0853 
      6 C6         17.1215  -26.2960  -45.2494 C.3       10 UNK        -0.0849 
      7 S7         15.3410  -26.7133  -45.3170 S.3       10 UNK        -0.2776 
      8 C8         15.3077  -28.1941  -46.3839 C.3       10 UNK         0.0316 
      9 C9         16.1692  -29.3400  -45.8638 C.ar      10 UNK        -0.0863 
     10 C10        15.8548  -29.9868  -44.6626 C.ar      10 UNK        -0.1009 
     11 C11        16.6417  -31.0433  -44.1864 C.ar      10 UNK        -0.0712 
     12 C12        17.7306  -31.4702  -44.9560 C.ar      10 UNK        -0.0894 
     13 C13        18.0812  -30.8066  -46.1324 C.ar      10 UNK        -0.0745 
     14 C14        17.2896  -29.7522  -46.5911 C.ar      10 UNK        -0.0972 
     15 C15        19.3469  -31.2041  -46.8757 C.3       10 UNK         0.0209 
     16 S16        20.6934  -30.0050  -46.6040 S.3       10 UNK        -0.2568 
     17 C17        20.8753  -30.0084  -44.7845 C.3       10 UNK        -0.0983 
     18 CA         21.7699  -28.8467  -44.2984 C.3       3 UNK         0.0876 
     19 N          21.2424  -27.5385  -44.6856 N.am      3 UNK        -0.4424 
     20 C          21.9358  -26.3932  -44.6433 C.2       2 UNK         0.4918 
     21 O          23.1139  -26.3269  -44.2952 O.2       2 UNK        -0.4875 
     22 CA         21.1953  -25.1029  -45.0444 C.3       2 UNK         0.0481 
     23 CB         21.5838  -24.6876  -46.4718 C.3       2 UNK        -0.1831 
     24 N          19.7366  -25.2272  -44.9562 N.am      2 UNK        -0.4498 
     25 C          19.0503  -25.3132  -43.8066 C.2       1 UNK         0.5027 
     26 O          19.5801  -25.1738  -42.7002 O.2       1 UNK        -0.4969 
     27 C          22.0231  -28.9107  -42.7807 C.2       3 UNK         0.5005 
     28 O          23.0857  -29.3765  -42.3733 O.2       3 UNK        -0.5279 
     29 N          21.0988  -28.3824  -41.9636 N.am      4 UNK        -0.4463 
     30 CA         21.2749  -28.2397  -40.5124 C.3       4 UNK         0.0283 
     31 CB         19.9721  -27.7724  -39.8529 C.3       4 UNK        -0.1875 
     32 C          22.4329  -27.3115  -40.1158 C.2       4 UNK         0.4949 
     33 O          23.1007  -27.5846  -39.1196 O.2       4 UNK        -0.5039 
     34 N          22.6997  -26.2726  -40.9206 N.am      5 UNK        -0.4663 
     35 CA         23.8592  -25.3869  -40.7523 C.3       5 UNK         0.0242 
     36 CB         23.6989  -24.1439  -41.6422 C.3       5 UNK        -0.1982 
     37 C          25.2042  -26.0930  -41.0197 C.2       5 UNK         0.5017 
     38 O          26.2220  -25.6753  -40.4674 O.2       5 UNK        -0.5012 
     39 N          25.1769  -27.1660  -41.8224 N.am      6 UNK        -0.4439 
     40 CA         26.2967  -28.0770  -42.0704 C.3       6 UNK         0.0297 
     41 CB         26.2469  -28.5220  -43.5431 C.3       6 UNK        -0.2006 
     42 C          26.2868  -29.2998  -41.1271 C.2       6 UNK         0.4892 
     43 O          27.1399  -30.1739  -41.2847 O.2       6 UNK        -0.5089 
     44 N          25.3297  -29.3537  -40.1848 N.am      7 UNK        -0.4243 
     45 CA         25.0568  -30.4391  -39.2325 C.3       7 UNK         0.0196 
     46 CB         26.2328  -30.6237  -38.2495 C.3       7 UNK        -0.2007 
     47 C          24.6175  -31.7602  -39.8993 C.2       7 UNK         0.5020 
     48 O          24.8212  -32.8308  -39.3249 O.2       7 UNK        -0.5147 
     49 N          24.0068  -31.6696  -41.0875 N.am      8 UNK        -0.4734 
     50 CA         23.5221  -32.8023  -41.8811 C.3       8 UNK         0.0238 
     51 CB         23.9258  -32.5783  -43.3496 C.3       8 UNK        -0.1912 
     52 C          22.0019  -33.0170  -41.7534 C.2       8 UNK         0.5038 
     53 O          21.4834  -33.9528  -42.3633 O.2       8 UNK        -0.5046 
     54 N          21.3114  -32.1701  -40.9800 N.am      9 UNK        -0.4200 
     55 CA         19.8743  -32.2571  -40.6878 C.3       9 UNK         0.0839 
     56 C          19.5321  -31.5739  -39.3373 C.2       9 UNK         0.5513 
     57 N          18.2584  -31.5056  -38.9774 N.am      9 UNK        -0.7519 
     58 O          20.4081  -31.1147  -38.6069 O.2       9 UNK        -0.4960 
     59 C59        18.9918  -31.7757  -41.8788 C.3       10 UNK        -0.0876 
     60 S60        17.5155  -32.8288  -42.1202 S.3       10 UNK        -0.2414 
     61 C61        16.2849  -31.6757  -42.8369 C.3       10 UNK         0.0169 
     62 H62        17.1270  -29.1347  -40.8685 H         1 UNK         0.0903 
     63 H63        16.7154  -27.5175  -40.2998 H         1 UNK         0.0903 
     64 H64        15.6517  -28.3576  -41.4383 H         1 UNK         0.0903 
     65 H65        16.3024  -25.9035  -42.2230 H         1 UNK         0.3096 
     66 H66        17.0427  -24.6462  -43.8661 H         1 UNK         0.1121 
     67 H67        17.7106  -27.2006  -45.4032 H         1 UNK         0.0849 
     68 H68        17.3287  -25.6409  -46.0970 H         1 UNK         0.0849 
     69 H69        14.2767  -28.5397  -46.4707 H         1 UNK         0.0865 
     70 H70        15.6139  -27.9056  -47.3907 H         1 UNK         0.0865 
     71 H71        15.0023  -29.6514  -44.0879 H         1 UNK         0.1346 
     72 H72        18.3433  -32.2971  -44.6313 H         1 UNK         0.1412 
     73 H73        17.5614  -29.2426  -47.5056 H         1 UNK         0.1426 
     74 H74        19.1377  -31.2687  -47.9444 H         1 UNK         0.0716 
     75 H75        19.6845  -32.1953  -46.5685 H         1 UNK         0.0716 
     76 H76        21.2852  -30.9737  -44.4834 H         1 UNK         0.0695 
     77 H77        19.8922  -29.9255  -44.3212 H         1 UNK         0.0695 
     78 H78        22.7441  -28.9595  -44.7801 H         1 UNK         0.0983 
     79 H79        20.2764  -27.5184  -44.9754 H         1 UNK         0.3095 
     80 H80        21.5158  -24.3135  -44.3612 H         1 UNK         0.0454 
     81 H81        21.1227  -23.7398  -46.7500 H         1 UNK         0.0851 
     82 H82        21.2870  -25.4364  -47.2073 H         1 UNK         0.0851 
     83 H83        22.6635  -24.5571  -46.5588 H         1 UNK         0.0851 
     84 H84        19.2397  -25.3208  -45.8303 H         1 UNK         0.2976 
     85 H85        20.2114  -28.0740  -42.3579 H         1 UNK         0.3116 
     86 H86        21.5171  -29.2264  -40.1159 H         1 UNK         0.0646 
     87 H87        19.1973  -28.5295  -39.9505 H         1 UNK         0.0847 
     88 H88        19.6072  -26.8416  -40.2889 H         1 UNK         0.0847 
     89 H89        20.1117  -27.6022  -38.7843 H         1 UNK         0.0847 
     90 H90        22.1014  -26.1092  -41.7189 H         1 UNK         0.3040 
     91 H91        23.8735  -25.0545  -39.7116 H         1 UNK         0.1015 
     92 H92        24.5012  -23.4289  -41.4547 H         1 UNK         0.0786 
     93 H93        22.7568  -23.6315  -41.4458 H         1 UNK         0.0786 
     94 H94        23.7323  -24.3923  -42.7022 H         1 UNK         0.0786 
     95 H95        24.2905  -27.4344  -42.2326 H         1 UNK         0.3172 
     96 H96        27.2394  -27.5506  -41.9086 H         1 UNK         0.0595 
     97 H97        25.3567  -29.1137  -43.7581 H         1 UNK         0.0839 
     98 H98        27.1126  -29.1352  -43.7969 H         1 UNK         0.0839 
     99 H99        26.2494  -27.6652  -44.2173 H         1 UNK         0.0839 
    100 H100       24.6790  -28.5789  -40.1344 H         1 UNK         0.2998 
    101 H101       24.1968  -30.1087  -38.6482 H         1 UNK         0.0822 
    102 H102       26.5125  -29.6785  -37.7841 H         1 UNK         0.0787 
    103 H103       25.9673  -31.3118  -37.4460 H         1 UNK         0.0787 
    104 H104       27.1155  -31.0295  -38.7444 H         1 UNK         0.0787 
    105 H105       23.8458  -30.7467  -41.4921 H         1 UNK         0.3055 
    106 H106       23.9972  -33.7252  -41.5412 H         1 UNK         0.1106 
    107 H107       23.4797  -31.6736  -43.7613 H         1 UNK         0.0828 
    108 H108       23.6112  -33.4128  -43.9776 H         1 UNK         0.0828 
    109 H109       25.0076  -32.4894  -43.4505 H         1 UNK         0.0828 
    110 H110       21.8115  -31.4622  -40.4605 H         1 UNK         0.2931 
    111 H111       19.6809  -33.3171  -40.5110 H         1 UNK         0.0412 
    112 H112       18.0171  -31.0755  -38.0984 H         1 UNK         0.3472 
    113 H113       17.5382  -31.9003  -39.5628 H         1 UNK         0.3472 
    114 H114       18.7047  -30.7283  -41.7732 H         1 UNK         0.0970 
    115 H115       19.5649  -31.8221  -42.8032 H         1 UNK         0.0970 
    116 H116       15.3466  -32.2190  -42.9546 H         1 UNK         0.0612 
    117 H117       16.0914  -30.8879  -42.1095 H         1 UNK         0.0612 
@<TRIPOS>BOND
     1    1    2 1    
     2    1   62 1    
     3    1   63 1    
     4    1   64 1    
     5    2    3 2    
     6    2    4 am   BACKBONE|DICT|INTERRES
     7    4    5 1    
     8    4   65 1    
     9    5    6 1    
    10    5   25 1    
    11    5   66 1    
    12    6    7 1    
    13    6   67 1    
    14    6   68 1    
    15    7    8 1    
    16    8    9 1    
    17    8   69 1    
    18    8   70 1    
    19    9   10 ar   
    20    9   14 ar   
    21   10   11 ar   
    22   10   71 1    
    23   11   12 ar   
    24   11   61 1    
    25   12   13 ar   
    26   12   72 1    
    27   13   14 ar   
    28   13   15 1    
    29   14   73 1    
    30   15   16 1    
    31   15   74 1    
    32   15   75 1    
    33   16   17 1    
    34   17   18 1    
    35   17   76 1    
    36   17   77 1    
    37   18   19 1    
    38   18   27 1    
    39   18   78 1    
    40   19   20 am   BACKBONE|DICT|INTERRES
    41   19   79 1    
    42   20   21 2    
    43   20   22 1    
    44   22   23 1    
    45   22   24 1    
    46   22   80 1    
    47   23   81 1    
    48   23   82 1    
    49   23   83 1    
    50   24   25 am   BACKBONE|DICT|INTERRES
    51   24   84 1    
    52   25   26 2    
    53   27   28 2    
    54   27   29 am   BACKBONE|DICT|INTERRES
    55   29   30 1    
    56   29   85 1    
    57   30   31 1    
    58   30   32 1    
    59   30   86 1    
    60   31   87 1    
    61   31   88 1    
    62   31   89 1    
    63   32   33 2    
    64   32   34 am   BACKBONE|DICT|INTERRES
    65   34   35 1    
    66   34   90 1    
    67   35   36 1    
    68   35   37 1    
    69   35   91 1    
    70   36   92 1    
    71   36   93 1    
    72   36   94 1    
    73   37   38 2    
    74   37   39 am   BACKBONE|DICT|INTERRES
    75   39   40 1    
    76   39   95 1    
    77   40   41 1    
    78   40   42 1    
    79   40   96 1    
    80   41   97 1    
    81   41   98 1    
    82   41   99 1    
    83   42   43 2    
    84   42   44 am   BACKBONE|DICT|INTERRES
    85   44   45 1    
    86   44  100 1    
    87   45   46 1    
    88   45   47 1    
    89   45  101 1    
    90   46  102 1    
    91   46  103 1    
    92   46  104 1    
    93   47   48 2    
    94   47   49 am   BACKBONE|DICT|INTERRES
    95   49   50 1    
    96   49  105 1    
    97   50   51 1    
    98   50   52 1    
    99   50  106 1    
   100   51  107 1    
   101   51  108 1    
   102   51  109 1    
   103   52   53 2    
   104   52   54 am   BACKBONE|DICT|INTERRES
   105   54   55 1    
   106   54  110 1    
   107   55   56 1    
   108   55   59 1    
   109   55  111 1    
   110   56   57 am   BACKBONE|DICT|INTERRES
   111   56   58 2    
   112   57  112 1    
   113   57  113 1    
   114   59   60 1    
   115   59  114 1    
   116   59  115 1    
   117   60   61 1    
   118   61  116 1    
   119   61  117 1    
@<TRIPOS>SUBSTRUCTURE
     1 UNK         1 GROUP             0       ****    0 ROOT    
