@<TRIPOS>MOLECULE
3R8
117   119    1
SMALL
USER_CHARGES


@<TRIPOS>ATOM
      1 CA         15.2843  -24.5533  -42.4158 C.3       0 UNK        -0.2013 
      2 C          14.3318  -25.7455  -42.4711 C.2       0 UNK         0.4866 
      3 O          13.4807  -25.8755  -41.5939 O.2       0 UNK        -0.5176 
      4 N          14.4197  -26.6388  -43.4690 N.am      1 UNK        -0.4884 
      5 CA         15.3969  -26.6590  -44.5686 C.3       1 UNK         0.0853 
      6 C6         14.9618  -27.6560  -45.6738 C.3       10 UNK        -0.0849 
      7 S7         15.6895  -27.2646  -47.3010 S.3       10 UNK        -0.2776 
      8 C8         16.4148  -28.8627  -47.7957 C.3       10 UNK         0.0316 
      9 C9         17.7056  -29.2046  -47.0575 C.ar      10 UNK        -0.0863 
     10 C10        17.7876  -30.3612  -46.2767 C.ar      10 UNK        -0.1009 
     11 C11        18.9986  -30.7416  -45.6879 C.ar      10 UNK        -0.0712 
     12 C12        20.1311  -29.9360  -45.8548 C.ar      10 UNK        -0.0894 
     13 C13        20.0621  -28.7750  -46.6340 C.ar      10 UNK        -0.0745 
     14 C14        18.8477  -28.4168  -47.2296 C.ar      10 UNK        -0.0972 
     15 C15        21.3091  -27.9480  -46.9193 C.3       10 UNK         0.0209 
     16 S16        21.3337  -26.3742  -46.0018 S.3       10 UNK        -0.2568 
     17 C17        22.2878  -26.8016  -44.5089 C.3       10 UNK        -0.0983 
     18 CA         21.4943  -26.5576  -43.2031 C.3       3 UNK         0.0876 
     19 N          20.3166  -27.4160  -43.1219 N.am      3 UNK        -0.4424 
     20 C          19.3094  -27.2601  -42.2570 C.2       2 UNK         0.4918 
     21 O          19.2492  -26.3683  -41.4082 O.2       2 UNK        -0.4875 
     22 CA         18.1604  -28.2732  -42.3879 C.3       2 UNK         0.0481 
     23 CB         17.8062  -28.8755  -41.0175 C.3       2 UNK        -0.1831 
     24 N          16.9405  -27.7396  -42.9992 N.am      2 UNK        -0.4498 
     25 C          16.8322  -26.9605  -44.0880 C.2       1 UNK         0.5027 
     26 O          17.7797  -26.4717  -44.7004 O.2       1 UNK        -0.4969 
     27 C          22.4148  -26.7774  -41.9899 C.2       3 UNK         0.5005 
     28 O          22.7870  -27.9204  -41.7096 O.2       3 UNK        -0.5279 
     29 N          22.8464  -25.6813  -41.3505 N.am      4 UNK        -0.4463 
     30 CA         23.8467  -25.6904  -40.2750 C.3       4 UNK         0.0283 
     31 CB         23.9217  -24.2967  -39.6317 C.3       4 UNK        -0.1875 
     32 C          25.2416  -26.1413  -40.7490 C.2       4 UNK         0.4949 
     33 O          26.0062  -26.6792  -39.9498 O.2       4 UNK        -0.5039 
     34 N          25.5332  -25.9412  -42.0431 N.am      5 UNK        -0.4663 
     35 CA         26.7355  -26.4379  -42.7164 C.3       5 UNK         0.0242 
     36 CB         26.8853  -25.7281  -44.0718 C.3       5 UNK        -0.1982 
     37 C          26.7303  -27.9659  -42.9073 C.2       5 UNK         0.5017 
     38 O          27.8045  -28.5675  -42.9283 O.2       5 UNK        -0.5012 
     39 N          25.5354  -28.5631  -43.0376 N.am      6 UNK        -0.4439 
     40 CA         25.3426  -30.0138  -43.0793 C.3       6 UNK         0.0297 
     41 CB         24.0418  -30.3608  -43.8254 C.3       6 UNK        -0.2006 
     42 C          25.3341  -30.5992  -41.6605 C.2       6 UNK         0.4892 
     43 O          25.9682  -31.6297  -41.4318 O.2       6 UNK        -0.5089 
     44 N          24.6189  -29.9279  -40.7425 N.am      7 UNK        -0.4243 
     45 CA         24.4625  -30.1952  -39.3043 C.3       7 UNK         0.0196 
     46 CB         25.8148  -30.1479  -38.5677 C.3       7 UNK        -0.2007 
     47 C          23.6959  -31.4874  -38.9754 C.2       7 UNK         0.5020 
     48 O          22.7816  -31.4539  -38.1518 O.2       7 UNK        -0.5147 
     49 N          24.0404  -32.5917  -39.6494 N.am      8 UNK        -0.4734 
     50 CA         23.4103  -33.9126  -39.5345 C.3       8 UNK         0.0238 
     51 CB         24.2261  -34.9270  -40.3522 C.3       8 UNK        -0.1912 
     52 C          21.9306  -33.9418  -39.9606 C.2       8 UNK         0.5038 
     53 O          21.2087  -34.8566  -39.5617 O.2       8 UNK        -0.5046 
     54 N          21.5068  -32.9383  -40.7409 N.am      9 UNK        -0.4200 
     55 CA         20.1032  -32.6664  -41.0753 C.3       9 UNK         0.0839 
     56 C          19.2427  -32.1946  -39.8615 C.2       9 UNK         0.5513 
     57 N          19.8315  -31.7124  -38.7718 N.am      9 UNK        -0.7519 
     58 O          18.0190  -32.2817  -39.9007 O.2       9 UNK        -0.4960 
     59 C59        20.0018  -31.6857  -42.2768 C.3       10 UNK        -0.0876 
     60 S60        18.4719  -31.9426  -43.2412 S.3       10 UNK        -0.2414 
     61 C61        19.0860  -32.0694  -44.9476 C.3       10 UNK         0.0169 
     62 H62        16.2771  -24.8664  -42.0933 H         1 UNK         0.0903 
     63 H63        15.3660  -24.0550  -43.3806 H         1 UNK         0.0903 
     64 H64        14.9233  -23.8146  -41.7003 H         1 UNK         0.0903 
     65 H65        13.7558  -27.4008  -43.4737 H         1 UNK         0.3096 
     66 H66        15.4078  -25.6607  -45.0104 H         1 UNK         0.1121 
     67 H67        15.1856  -28.6865  -45.3898 H         1 UNK         0.0849 
     68 H68        13.8792  -27.6160  -45.8067 H         1 UNK         0.0849 
     69 H69        15.6694  -29.6496  -47.6696 H         1 UNK         0.0865 
     70 H70        16.6302  -28.8259  -48.8645 H         1 UNK         0.0865 
     71 H71        16.9184  -30.9941  -46.1594 H         1 UNK         0.1346 
     72 H72        21.0739  -30.2382  -45.4195 H         1 UNK         0.1412 
     73 H73        18.7961  -27.5308  -47.8479 H         1 UNK         0.1426 
     74 H74        22.2156  -28.5214  -46.7201 H         1 UNK         0.0716 
     75 H75        21.3382  -27.7182  -47.9855 H         1 UNK         0.0716 
     76 H76        22.6205  -27.8387  -44.5664 H         1 UNK         0.0695 
     77 H77        23.1936  -26.1924  -44.5278 H         1 UNK         0.0695 
     78 H78        21.1483  -25.5213  -43.1981 H         1 UNK         0.0983 
     79 H79        20.2467  -28.1355  -43.8257 H         1 UNK         0.3095 
     80 H80        18.4993  -29.0800  -43.0372 H         1 UNK         0.0454 
     81 H81        17.1408  -29.7331  -41.1194 H         1 UNK         0.0851 
     82 H82        18.6987  -29.2217  -40.4952 H         1 UNK         0.0851 
     83 H83        17.3197  -28.1452  -40.3699 H         1 UNK         0.0851 
     84 H84        16.0754  -28.0401  -42.5745 H         1 UNK         0.2976 
     85 H85        22.4940  -24.7768  -41.6321 H         1 UNK         0.3116 
     86 H86        23.5149  -26.4010  -39.5146 H         1 UNK         0.0646 
     87 H87        24.6398  -24.2854  -38.8104 H         1 UNK         0.0847 
     88 H88        22.9582  -23.9963  -39.2195 H         1 UNK         0.0847 
     89 H89        24.2349  -23.5354  -40.3472 H         1 UNK         0.0847 
     90 H90        24.8621  -25.4472  -42.6124 H         1 UNK         0.3040 
     91 H91        27.6013  -26.1879  -42.0985 H         1 UNK         0.1015 
     92 H92        26.9629  -24.6477  -43.9479 H         1 UNK         0.0786 
     93 H93        26.0417  -25.9320  -44.7326 H         1 UNK         0.0786 
     94 H94        27.7889  -26.0584  -44.5864 H         1 UNK         0.0786 
     95 H95        24.7043  -27.9966  -42.9475 H         1 UNK         0.3172 
     96 H96        26.1711  -30.4674  -43.6279 H         1 UNK         0.0595 
     97 H97        23.1576  -29.9703  -43.3216 H         1 UNK         0.0839 
     98 H98        23.9175  -31.4419  -43.9013 H         1 UNK         0.0839 
     99 H99        24.0518  -29.9671  -44.8418 H         1 UNK         0.0839 
    100 H100       24.0676  -29.1403  -41.0781 H         1 UNK         0.2998 
    101 H101       23.8574  -29.3700  -38.9243 H         1 UNK         0.0822 
    102 H102       26.3270  -29.2019  -38.7443 H         1 UNK         0.0787 
    103 H103       25.6737  -30.2441  -37.4903 H         1 UNK         0.0787 
    104 H104       26.4813  -30.9524  -38.8798 H         1 UNK         0.0787 
    105 H105       24.8080  -32.4987  -40.3129 H         1 UNK         0.3055 
    106 H106       23.4448  -34.2058  -38.4829 H         1 UNK         0.1106 
    107 H107       23.8018  -35.9288  -40.2700 H         1 UNK         0.0828 
    108 H108       24.2474  -34.6668  -41.4113 H         1 UNK         0.0828 
    109 H109       25.2563  -34.9837  -40.0002 H         1 UNK         0.0828 
    110 H110       22.1793  -32.2337  -41.0009 H         1 UNK         0.2931 
    111 H111       19.6848  -33.6244  -41.3911 H         1 UNK         0.0412 
    112 H112       19.2571  -31.4235  -37.9960 H         1 UNK         0.3472 
    113 H113       20.8408  -31.6568  -38.6929 H         1 UNK         0.3472 
    114 H114       20.8542  -31.8260  -42.9422 H         1 UNK         0.0970 
    115 H115       20.0637  -30.6473  -41.9492 H         1 UNK         0.0970 
    116 H116       20.1034  -32.4620  -44.9682 H         1 UNK         0.0612 
    117 H117       18.4780  -32.8086  -45.4714 H         1 UNK         0.0612 
@<TRIPOS>BOND
     1    1    2 1    
     2    1   62 1    
     3    1   63 1    
     4    1   64 1    
     5    2    3 2    
     6    2    4 am   BACKBONE|DICT|INTERRES
     7    4    5 1    
     8    4   65 1    
     9    5    6 1    
    10    5   25 1    
    11    5   66 1    
    12    6    7 1    
    13    6   67 1    
    14    6   68 1    
    15    7    8 1    
    16    8    9 1    
    17    8   69 1    
    18    8   70 1    
    19    9   10 ar   
    20    9   14 ar   
    21   10   11 ar   
    22   10   71 1    
    23   11   12 ar   
    24   11   61 1    
    25   12   13 ar   
    26   12   72 1    
    27   13   14 ar   
    28   13   15 1    
    29   14   73 1    
    30   15   16 1    
    31   15   74 1    
    32   15   75 1    
    33   16   17 1    
    34   17   18 1    
    35   17   76 1    
    36   17   77 1    
    37   18   19 1    
    38   18   27 1    
    39   18   78 1    
    40   19   20 am   BACKBONE|DICT|INTERRES
    41   19   79 1    
    42   20   21 2    
    43   20   22 1    
    44   22   23 1    
    45   22   24 1    
    46   22   80 1    
    47   23   81 1    
    48   23   82 1    
    49   23   83 1    
    50   24   25 am   BACKBONE|DICT|INTERRES
    51   24   84 1    
    52   25   26 2    
    53   27   28 2    
    54   27   29 am   BACKBONE|DICT|INTERRES
    55   29   30 1    
    56   29   85 1    
    57   30   31 1    
    58   30   32 1    
    59   30   86 1    
    60   31   87 1    
    61   31   88 1    
    62   31   89 1    
    63   32   33 2    
    64   32   34 am   BACKBONE|DICT|INTERRES
    65   34   35 1    
    66   34   90 1    
    67   35   36 1    
    68   35   37 1    
    69   35   91 1    
    70   36   92 1    
    71   36   93 1    
    72   36   94 1    
    73   37   38 2    
    74   37   39 am   BACKBONE|DICT|INTERRES
    75   39   40 1    
    76   39   95 1    
    77   40   41 1    
    78   40   42 1    
    79   40   96 1    
    80   41   97 1    
    81   41   98 1    
    82   41   99 1    
    83   42   43 2    
    84   42   44 am   BACKBONE|DICT|INTERRES
    85   44   45 1    
    86   44  100 1    
    87   45   46 1    
    88   45   47 1    
    89   45  101 1    
    90   46  102 1    
    91   46  103 1    
    92   46  104 1    
    93   47   48 2    
    94   47   49 am   BACKBONE|DICT|INTERRES
    95   49   50 1    
    96   49  105 1    
    97   50   51 1    
    98   50   52 1    
    99   50  106 1    
   100   51  107 1    
   101   51  108 1    
   102   51  109 1    
   103   52   53 2    
   104   52   54 am   BACKBONE|DICT|INTERRES
   105   54   55 1    
   106   54  110 1    
   107   55   56 1    
   108   55   59 1    
   109   55  111 1    
   110   56   57 am   BACKBONE|DICT|INTERRES
   111   56   58 2    
   112   57  112 1    
   113   57  113 1    
   114   59   60 1    
   115   59  114 1    
   116   59  115 1    
   117   60   61 1    
   118   61  116 1    
   119   61  117 1    
@<TRIPOS>SUBSTRUCTURE
     1 UNK         1 GROUP             0       ****    0 ROOT    
