@<TRIPOS>MOLECULE
3R8
117   119    1
SMALL
USER_CHARGES


@<TRIPOS>ATOM
      1 CA         14.7919  -22.8904  -45.9151 C.3       0 UNK        -0.2013 
      2 C          15.8461  -23.9591  -45.6713 C.2       0 UNK         0.4866 
      3 O          16.8067  -24.0602  -46.4351 O.2       0 UNK        -0.5176 
      4 N          15.6907  -24.7486  -44.6012 N.am      1 UNK        -0.4884 
      5 CA         16.5613  -25.8692  -44.2126 C.3       1 UNK         0.0853 
      6 C6         15.7998  -26.8943  -43.3297 C.3       10 UNK        -0.0849 
      7 S7         14.4673  -27.7157  -44.2716 S.3       10 UNK        -0.2776 
      8 C8         14.8091  -29.4906  -43.9925 C.3       10 UNK         0.0316 
      9 C9         16.2256  -29.9322  -44.3581 C.ar      10 UNK        -0.0863 
     10 C10        16.9106  -30.8116  -43.5146 C.ar      10 UNK        -0.1009 
     11 C11        18.2124  -31.2324  -43.8134 C.ar      10 UNK        -0.0712 
     12 C12        18.8275  -30.7646  -44.9797 C.ar      10 UNK        -0.0894 
     13 C13        18.1454  -29.9059  -45.8475 C.ar      10 UNK        -0.0745 
     14 C14        16.8450  -29.4988  -45.5343 C.ar      10 UNK        -0.0972 
     15 C15        18.7835  -29.4492  -47.1503 C.3       10 UNK         0.0209 
     16 S16        19.1850  -27.6743  -47.1206 S.3       10 UNK        -0.2568 
     17 C17        20.9917  -27.6612  -46.8284 C.3       10 UNK        -0.0983 
     18 CA         21.4194  -27.1316  -45.4333 C.3       3 UNK         0.0876 
     19 N          20.6787  -25.9214  -45.0744 N.am      3 UNK        -0.4424 
     20 C          20.9689  -25.0452  -44.1059 C.2       2 UNK         0.4918 
     21 O          21.9749  -25.1100  -43.4014 O.2       2 UNK        -0.4875 
     22 CA         19.9080  -23.9602  -43.8407 C.3       2 UNK         0.0481 
     23 CB         20.2377  -22.6793  -44.6216 C.3       2 UNK        -0.1831 
     24 N          18.5534  -24.4102  -44.1881 N.am      2 UNK        -0.4498 
     25 C          17.8910  -25.4013  -43.5737 C.2       1 UNK         0.5027 
     26 O          18.3251  -25.9611  -42.5669 O.2       1 UNK        -0.4969 
     27 C          21.4135  -28.2367  -44.3500 C.2       3 UNK         0.5005 
     28 O          22.1009  -29.2401  -44.5352 O.2       3 UNK        -0.5279 
     29 N          20.6899  -28.0417  -43.2354 N.am      4 UNK        -0.4463 
     30 CA         20.7673  -28.8786  -42.0339 C.3       4 UNK         0.0283 
     31 CB         19.5690  -28.5622  -41.1264 C.3       4 UNK        -0.1875 
     32 C          22.0765  -28.6933  -41.2431 C.2       4 UNK         0.4949 
     33 O          22.4343  -29.5797  -40.4616 O.2       4 UNK        -0.5039 
     34 N          22.7487  -27.5486  -41.4406 N.am      5 UNK        -0.4663 
     35 CA         24.0086  -27.1668  -40.7985 C.3       5 UNK         0.0242 
     36 CB         24.3130  -25.7015  -41.1558 C.3       5 UNK        -0.1982 
     37 C          25.1940  -28.0747  -41.1771 C.2       5 UNK         0.5017 
     38 O          25.0992  -28.8735  -42.1108 O.2       5 UNK        -0.5012 
     39 N          26.2974  -27.9260  -40.4279 N.am      6 UNK        -0.4439 
     40 CA         27.5395  -28.7090  -40.5226 C.3       6 UNK         0.0297 
     41 CB         28.2548  -28.4629  -41.8689 C.3       6 UNK        -0.2006 
     42 C          27.3250  -30.2063  -40.2178 C.2       6 UNK         0.4892 
     43 O          27.9864  -31.0594  -40.8115 O.2       6 UNK        -0.5089 
     44 N          26.3944  -30.4813  -39.2902 N.am      7 UNK        -0.4243 
     45 CA         25.9608  -31.7995  -38.8149 C.3       7 UNK         0.0196 
     46 CB         27.1077  -32.5238  -38.0766 C.3       7 UNK        -0.2007 
     47 C          25.3003  -32.6759  -39.8989 C.2       7 UNK         0.5020 
     48 O          25.3197  -33.9016  -39.7748 O.2       7 UNK        -0.5147 
     49 N          24.7012  -32.0529  -40.9266 N.am      8 UNK        -0.4734 
     50 CA         23.9206  -32.7481  -41.9565 C.3       8 UNK         0.0238 
     51 CB         23.6489  -31.8068  -43.1362 C.3       8 UNK        -0.1912 
     52 C          22.6118  -33.3252  -41.3927 C.2       8 UNK         0.5038 
     53 O          22.2732  -34.4665  -41.7084 O.2       8 UNK        -0.5046 
     54 N          21.9447  -32.5538  -40.5259 N.am      9 UNK        -0.4200 
     55 CA         20.8620  -33.0206  -39.6489 C.3       9 UNK         0.0839 
     56 C          20.6497  -32.1437  -38.3826 C.2       9 UNK         0.5513 
     57 N          21.2300  -30.9532  -38.2725 N.am      9 UNK        -0.7519 
     58 O          19.9647  -32.5711  -37.4568 O.2       9 UNK        -0.4960 
     59 C59        19.5381  -33.3541  -40.3918 C.3       10 UNK        -0.0876 
     60 S60        18.7184  -31.9088  -41.1413 S.3       10 UNK        -0.2414 
     61 C61        18.9389  -32.2366  -42.9204 C.3       10 UNK         0.0169 
     62 H62        14.3314  -23.0353  -46.8919 H         1 UNK         0.0903 
     63 H63        14.0043  -22.9147  -45.1622 H         1 UNK         0.0903 
     64 H64        15.2490  -21.9014  -45.8969 H         1 UNK         0.0903 
     65 H65        14.8896  -24.6049  -44.0023 H         1 UNK         0.3096 
     66 H66        16.8587  -26.3916  -45.1253 H         1 UNK         0.1121 
     67 H67        15.3697  -26.4069  -42.4532 H         1 UNK         0.0849 
     68 H68        16.4769  -27.6579  -42.9432 H         1 UNK         0.0849 
     69 H69        14.1002  -30.0792  -44.5761 H         1 UNK         0.0865 
     70 H70        14.6006  -29.7129  -42.9446 H         1 UNK         0.0865 
     71 H71        16.4243  -31.1774  -42.6209 H         1 UNK         0.1346 
     72 H72        19.8307  -31.0871  -45.2242 H         1 UNK         0.1412 
     73 H73        16.3162  -28.8397  -46.2094 H         1 UNK         0.1426 
     74 H74        18.0809  -29.6285  -47.9654 H         1 UNK         0.0716 
     75 H75        19.6679  -30.0428  -47.3848 H         1 UNK         0.0716 
     76 H76        21.4176  -27.0060  -47.5897 H         1 UNK         0.0695 
     77 H77        21.4233  -28.6419  -47.0353 H         1 UNK         0.0695 
     78 H78        22.4679  -26.8363  -45.5143 H         1 UNK         0.0983 
     79 H79        19.8238  -25.7855  -45.5951 H         1 UNK         0.3095 
     80 H80        19.9267  -23.7284  -42.7738 H         1 UNK         0.0454 
     81 H81        20.2151  -22.8446  -45.6995 H         1 UNK         0.0851 
     82 H82        21.2338  -22.3138  -44.3680 H         1 UNK         0.0851 
     83 H83        19.5325  -21.8811  -44.3897 H         1 UNK         0.0851 
     84 H84        18.1277  -24.0209  -45.0254 H         1 UNK         0.2976 
     85 H85        20.1136  -27.2126  -43.1649 H         1 UNK         0.3116 
     86 H86        20.7094  -29.9247  -42.3380 H         1 UNK         0.0646 
     87 H87        18.6244  -28.7436  -41.6399 H         1 UNK         0.0847 
     88 H88        19.5779  -27.5247  -40.7908 H         1 UNK         0.0847 
     89 H89        19.5782  -29.1881  -40.2333 H         1 UNK         0.0847 
     90 H90        22.3848  -26.8945  -42.1223 H         1 UNK         0.3040 
     91 H91        23.8601  -27.2443  -39.7193 H         1 UNK         0.1015 
     92 H92        25.2009  -25.3373  -40.6377 H         1 UNK         0.0786 
     93 H93        23.4887  -25.0450  -40.8759 H         1 UNK         0.0786 
     94 H94        24.4871  -25.5785  -42.2257 H         1 UNK         0.0786 
     95 H95        26.2813  -27.2308  -39.6934 H         1 UNK         0.3172 
     96 H96        28.1943  -28.3350  -39.7341 H         1 UNK         0.0595 
     97 H97        27.6979  -28.8811  -42.7080 H         1 UNK         0.0839 
     98 H98        29.2429  -28.9246  -41.8759 H         1 UNK         0.0839 
     99 H99        28.3949  -27.3984  -42.0561 H         1 UNK         0.0839 
    100 H100       25.9106  -29.6955  -38.8787 H         1 UNK         0.2998 
    101 H101       25.1757  -31.6066  -38.0820 H         1 UNK         0.0822 
    102 H102       27.5461  -31.8907  -37.3052 H         1 UNK         0.0787 
    103 H103       26.7483  -33.4280  -37.5836 H         1 UNK         0.0787 
    104 H104       27.9040  -32.8223  -38.7592 H         1 UNK         0.0787 
    105 H105       24.7366  -31.0426  -40.9823 H         1 UNK         0.3055 
    106 H106       24.5167  -33.5863  -42.3249 H         1 UNK         0.1106 
    107 H107       23.0732  -32.3062  -43.9164 H         1 UNK         0.0828 
    108 H108       24.5765  -31.4555  -43.5883 H         1 UNK         0.0828 
    109 H109       23.0826  -30.9315  -42.8241 H         1 UNK         0.0828 
    110 H110       22.2788  -31.6125  -40.3575 H         1 UNK         0.2931 
    111 H111       21.2217  -33.9666  -39.2384 H         1 UNK         0.0412 
    112 H112       21.7367  -30.5187  -39.0369 H         1 UNK         0.3472 
    113 H113       21.0802  -30.4285  -37.4257 H         1 UNK         0.3472 
    114 H114       19.7151  -34.1110  -41.1563 H         1 UNK         0.0970 
    115 H115       18.8313  -33.8149  -39.6995 H         1 UNK         0.0970 
    116 H116       18.5633  -33.2345  -43.1497 H         1 UNK         0.0612 
    117 H117       20.0079  -32.2429  -43.1396 H         1 UNK         0.0612 
@<TRIPOS>BOND
     1    1    2 1    
     2    1   62 1    
     3    1   63 1    
     4    1   64 1    
     5    2    3 2    
     6    2    4 am   BACKBONE|DICT|INTERRES
     7    4    5 1    
     8    4   65 1    
     9    5    6 1    
    10    5   25 1    
    11    5   66 1    
    12    6    7 1    
    13    6   67 1    
    14    6   68 1    
    15    7    8 1    
    16    8    9 1    
    17    8   69 1    
    18    8   70 1    
    19    9   10 ar   
    20    9   14 ar   
    21   10   11 ar   
    22   10   71 1    
    23   11   12 ar   
    24   11   61 1    
    25   12   13 ar   
    26   12   72 1    
    27   13   14 ar   
    28   13   15 1    
    29   14   73 1    
    30   15   16 1    
    31   15   74 1    
    32   15   75 1    
    33   16   17 1    
    34   17   18 1    
    35   17   76 1    
    36   17   77 1    
    37   18   19 1    
    38   18   27 1    
    39   18   78 1    
    40   19   20 am   BACKBONE|DICT|INTERRES
    41   19   79 1    
    42   20   21 2    
    43   20   22 1    
    44   22   23 1    
    45   22   24 1    
    46   22   80 1    
    47   23   81 1    
    48   23   82 1    
    49   23   83 1    
    50   24   25 am   BACKBONE|DICT|INTERRES
    51   24   84 1    
    52   25   26 2    
    53   27   28 2    
    54   27   29 am   BACKBONE|DICT|INTERRES
    55   29   30 1    
    56   29   85 1    
    57   30   31 1    
    58   30   32 1    
    59   30   86 1    
    60   31   87 1    
    61   31   88 1    
    62   31   89 1    
    63   32   33 2    
    64   32   34 am   BACKBONE|DICT|INTERRES
    65   34   35 1    
    66   34   90 1    
    67   35   36 1    
    68   35   37 1    
    69   35   91 1    
    70   36   92 1    
    71   36   93 1    
    72   36   94 1    
    73   37   38 2    
    74   37   39 am   BACKBONE|DICT|INTERRES
    75   39   40 1    
    76   39   95 1    
    77   40   41 1    
    78   40   42 1    
    79   40   96 1    
    80   41   97 1    
    81   41   98 1    
    82   41   99 1    
    83   42   43 2    
    84   42   44 am   BACKBONE|DICT|INTERRES
    85   44   45 1    
    86   44  100 1    
    87   45   46 1    
    88   45   47 1    
    89   45  101 1    
    90   46  102 1    
    91   46  103 1    
    92   46  104 1    
    93   47   48 2    
    94   47   49 am   BACKBONE|DICT|INTERRES
    95   49   50 1    
    96   49  105 1    
    97   50   51 1    
    98   50   52 1    
    99   50  106 1    
   100   51  107 1    
   101   51  108 1    
   102   51  109 1    
   103   52   53 2    
   104   52   54 am   BACKBONE|DICT|INTERRES
   105   54   55 1    
   106   54  110 1    
   107   55   56 1    
   108   55   59 1    
   109   55  111 1    
   110   56   57 am   BACKBONE|DICT|INTERRES
   111   56   58 2    
   112   57  112 1    
   113   57  113 1    
   114   59   60 1    
   115   59  114 1    
   116   59  115 1    
   117   60   61 1    
   118   61  116 1    
   119   61  117 1    
@<TRIPOS>SUBSTRUCTURE
     1 UNK         1 GROUP             0       ****    0 ROOT    
