@<TRIPOS>MOLECULE
3R8
117   119    1
SMALL
USER_CHARGES


@<TRIPOS>ATOM
      1 CA         15.0850  -24.6030  -42.2491 C.3       0 UNK        -0.2013 
      2 C          15.7152  -25.5642  -41.2432 C.2       0 UNK         0.4866 
      3 O          15.3597  -25.5197  -40.0670 O.2       0 UNK        -0.5176 
      4 N          16.6322  -26.4566  -41.6435 N.am      1 UNK        -0.4884 
      5 CA         17.2198  -26.6021  -42.9821 C.3       1 UNK         0.0853 
      6 C6         18.0622  -27.8976  -43.0950 C.3       10 UNK        -0.0849 
      7 S7         17.0794  -29.4067  -42.8075 S.3       10 UNK        -0.2776 
      8 C8         16.9776  -30.1176  -44.4827 C.3       10 UNK         0.0316 
      9 C9         18.3113  -30.6910  -44.9433 C.ar      10 UNK        -0.0863 
     10 C10        18.7919  -31.8769  -44.3814 C.ar      10 UNK        -0.1009 
     11 C11        20.0042  -32.4245  -44.8086 C.ar      10 UNK        -0.0712 
     12 C12        20.7492  -31.7663  -45.7914 C.ar      10 UNK        -0.0894 
     13 C13        20.2849  -30.5757  -46.3609 C.ar      10 UNK        -0.0745 
     14 C14        19.0548  -30.0530  -45.9420 C.ar      10 UNK        -0.0972 
     15 C15        21.1116  -29.8891  -47.4476 C.3       10 UNK         0.0209 
     16 S16        21.2027  -28.0721  -47.2891 S.3       10 UNK        -0.2568 
     17 C17        21.9756  -27.8909  -45.6475 C.3       10 UNK        -0.0983 
     18 CA         22.0634  -26.4134  -45.1775 C.3       3 UNK         0.0876 
     19 N          20.7514  -25.7643  -45.2097 N.am      3 UNK        -0.4424 
     20 C          20.5068  -24.4476  -45.2219 C.2       2 UNK         0.4918 
     21 O          21.3899  -23.5890  -45.2401 O.2       2 UNK        -0.4875 
     22 CA         19.0271  -24.0169  -45.1956 C.3       2 UNK         0.0481 
     23 CB         18.5538  -23.6491  -46.6106 C.3       2 UNK        -0.1831 
     24 N          18.1384  -25.0448  -44.6384 N.am      2 UNK        -0.4498 
     25 C          18.1041  -25.3917  -43.3434 C.2       1 UNK         0.5027 
     26 O          18.7669  -24.8328  -42.4667 O.2       1 UNK        -0.4969 
     27 C          22.6785  -26.3029  -43.7652 C.2       3 UNK         0.5005 
     28 O          22.8272  -27.3154  -43.0820 O.2       3 UNK        -0.5279 
     29 N          23.0070  -25.0765  -43.3351 N.am      4 UNK        -0.4463 
     30 CA         23.4702  -24.7320  -41.9828 C.3       4 UNK         0.0283 
     31 CB         23.6654  -23.2102  -41.8929 C.3       4 UNK        -0.1875 
     32 C          24.7420  -25.4648  -41.5116 C.2       4 UNK         0.4949 
     33 O          24.9384  -25.6138  -40.3058 O.2       4 UNK        -0.5039 
     34 N          25.5704  -25.9220  -42.4599 N.am      5 UNK        -0.4663 
     35 CA         26.7499  -26.7554  -42.2103 C.3       5 UNK         0.0242 
     36 CB         27.6826  -26.6650  -43.4300 C.3       5 UNK        -0.1982 
     37 C          26.4131  -28.2287  -41.8986 C.2       5 UNK         0.5017 
     38 O          27.2977  -28.9523  -41.4389 O.2       5 UNK        -0.5012 
     39 N          25.1717  -28.6525  -42.1684 N.am      6 UNK        -0.4439 
     40 CA         24.6572  -30.0003  -41.9547 C.3       6 UNK         0.0297 
     41 CB         24.3256  -30.6259  -43.3252 C.3       6 UNK        -0.2006 
     42 C          23.4613  -29.8944  -40.9953 C.2       6 UNK         0.4892 
     43 O          23.6811  -29.7133  -39.7967 O.2       6 UNK        -0.5089 
     44 N          22.2326  -30.0049  -41.5233 N.am      7 UNK        -0.4243 
     45 CA         20.9192  -29.8429  -40.8768 C.3       7 UNK         0.0196 
     46 CB         20.7596  -28.4296  -40.2824 C.3       7 UNK        -0.2007 
     47 C          20.5580  -30.9198  -39.8376 C.2       7 UNK         0.5020 
     48 O          19.4188  -31.3858  -39.8278 O.2       7 UNK        -0.5147 
     49 N          21.5242  -31.3319  -39.0061 N.am      8 UNK        -0.4734 
     50 CA         21.3987  -32.3905  -37.9927 C.3       8 UNK         0.0238 
     51 CB         22.6853  -32.4341  -37.1529 C.3       8 UNK        -0.1912 
     52 C          21.0879  -33.7821  -38.5782 C.2       8 UNK         0.5038 
     53 O          20.5758  -34.6441  -37.8631 O.2       8 UNK        -0.5046 
     54 N          21.3845  -33.9566  -39.8698 N.am      9 UNK        -0.4200 
     55 CA         20.9680  -35.0737  -40.7242 C.3       9 UNK         0.0839 
     56 C          19.4319  -35.1813  -40.9639 C.2       9 UNK         0.5513 
     57 N          18.6340  -34.1529  -40.6974 N.am      9 UNK        -0.7519 
     58 O          18.9570  -36.2270  -41.3988 O.2       9 UNK        -0.4960 
     59 C59        21.7546  -35.0586  -42.0635 C.3       10 UNK        -0.0876 
     60 S60        21.7122  -33.4323  -42.9015 S.3       10 UNK        -0.2414 
     61 C61        20.4985  -33.7339  -44.2160 C.3       10 UNK         0.0169 
     62 H62        15.7752  -23.7970  -42.4964 H         1 UNK         0.0903 
     63 H63        14.7898  -25.1115  -43.1657 H         1 UNK         0.0903 
     64 H64        14.1874  -24.1508  -41.8275 H         1 UNK         0.0903 
     65 H65        17.0156  -27.0823  -40.9501 H         1 UNK         0.3096 
     66 H66        16.4049  -26.6665  -43.7057 H         1 UNK         0.1121 
     67 H67        18.8780  -27.8853  -42.3713 H         1 UNK         0.0849 
     68 H68        18.5396  -27.9667  -44.0732 H         1 UNK         0.0849 
     69 H69        16.6128  -29.3611  -45.1793 H         1 UNK         0.0865 
     70 H70        16.2300  -30.9123  -44.4815 H         1 UNK         0.0865 
     71 H71        18.2181  -32.3755  -43.6115 H         1 UNK         0.1346 
     72 H72        21.6905  -32.1893  -46.1151 H         1 UNK         0.1412 
     73 H73        18.6798  -29.1442  -46.3919 H         1 UNK         0.1426 
     74 H74        20.6782  -30.1325  -48.4183 H         1 UNK         0.0716 
     75 H75        22.1301  -30.2807  -47.4580 H         1 UNK         0.0716 
     76 H76        22.9711  -28.3368  -45.6894 H         1 UNK         0.0695 
     77 H77        21.4013  -28.4835  -44.9326 H         1 UNK         0.0695 
     78 H78        22.7268  -25.8829  -45.8642 H         1 UNK         0.0983 
     79 H79        19.9621  -26.3897  -45.2159 H         1 UNK         0.3095 
     80 H80        18.9547  -23.1246  -44.5701 H         1 UNK         0.0454 
     81 H81        18.5972  -24.5029  -47.2881 H         1 UNK         0.0851 
     82 H82        19.1784  -22.8634  -47.0382 H         1 UNK         0.0851 
     83 H83        17.5295  -23.2761  -46.6032 H         1 UNK         0.0851 
     84 H84        17.5544  -25.5378  -45.2998 H         1 UNK         0.2976 
     85 H85        22.7910  -24.3005  -43.9532 H         1 UNK         0.3116 
     86 H86        22.6709  -25.0127  -41.2936 H         1 UNK         0.0646 
     87 H87        24.4297  -22.8603  -42.5880 H         1 UNK         0.0847 
     88 H88        23.9766  -22.9138  -40.8901 H         1 UNK         0.0847 
     89 H89        22.7404  -22.6767  -42.1130 H         1 UNK         0.0847 
     90 H90        25.3329  -25.7424  -43.4247 H         1 UNK         0.3040 
     91 H91        27.2805  -26.3563  -41.3427 H         1 UNK         0.1015 
     92 H92        27.9845  -25.6356  -43.6241 H         1 UNK         0.0786 
     93 H93        27.2073  -27.0532  -44.3318 H         1 UNK         0.0786 
     94 H94        28.5944  -27.2421  -43.2687 H         1 UNK         0.0786 
     95 H95        24.4761  -27.9778  -42.4825 H         1 UNK         0.3172 
     96 H96        25.4042  -30.6286  -41.4655 H         1 UNK         0.0595 
     97 H97        23.5899  -30.0460  -43.8837 H         1 UNK         0.0839 
     98 H98        23.9436  -31.6394  -43.2113 H         1 UNK         0.0839 
     99 H99        25.2199  -30.6958  -43.9446 H         1 UNK         0.0839 
    100 H100       22.1865  -30.1765  -42.5178 H         1 UNK         0.2998 
    101 H101       20.1908  -29.9425  -41.6838 H         1 UNK         0.0822 
    102 H102       20.9581  -27.6604  -41.0290 H         1 UNK         0.0787 
    103 H103       19.7441  -28.2746  -39.9157 H         1 UNK         0.0787 
    104 H104       21.4361  -28.2607  -39.4442 H         1 UNK         0.0787 
    105 H105       22.4243  -30.8621  -39.0846 H         1 UNK         0.3055 
    106 H106       20.5649  -32.1262  -37.3387 H         1 UNK         0.1106 
    107 H107       22.6179  -33.1929  -36.3719 H         1 UNK         0.0828 
    108 H108       22.8699  -31.4796  -36.6596 H         1 UNK         0.0828 
    109 H109       23.5575  -32.6704  -37.7638 H         1 UNK         0.0828 
    110 H110       21.7912  -33.1753  -40.3625 H         1 UNK         0.2931 
    111 H111       21.2474  -35.9876  -40.1965 H         1 UNK         0.0412 
    112 H112       19.0059  -33.2719  -40.3583 H         1 UNK         0.3472 
    113 H113       17.6435  -34.2479  -40.8535 H         1 UNK         0.3472 
    114 H114       22.8012  -35.2939  -41.8647 H         1 UNK         0.0970 
    115 H115       21.4080  -35.8437  -42.7386 H         1 UNK         0.0970 
    116 H116       19.6576  -34.3034  -43.8176 H         1 UNK         0.0612 
    117 H117       20.9518  -34.3519  -44.9924 H         1 UNK         0.0612 
@<TRIPOS>BOND
     1    1    2 1    
     2    1   62 1    
     3    1   63 1    
     4    1   64 1    
     5    2    3 2    
     6    2    4 am   BACKBONE|DICT|INTERRES
     7    4    5 1    
     8    4   65 1    
     9    5    6 1    
    10    5   25 1    
    11    5   66 1    
    12    6    7 1    
    13    6   67 1    
    14    6   68 1    
    15    7    8 1    
    16    8    9 1    
    17    8   69 1    
    18    8   70 1    
    19    9   10 ar   
    20    9   14 ar   
    21   10   11 ar   
    22   10   71 1    
    23   11   12 ar   
    24   11   61 1    
    25   12   13 ar   
    26   12   72 1    
    27   13   14 ar   
    28   13   15 1    
    29   14   73 1    
    30   15   16 1    
    31   15   74 1    
    32   15   75 1    
    33   16   17 1    
    34   17   18 1    
    35   17   76 1    
    36   17   77 1    
    37   18   19 1    
    38   18   27 1    
    39   18   78 1    
    40   19   20 am   BACKBONE|DICT|INTERRES
    41   19   79 1    
    42   20   21 2    
    43   20   22 1    
    44   22   23 1    
    45   22   24 1    
    46   22   80 1    
    47   23   81 1    
    48   23   82 1    
    49   23   83 1    
    50   24   25 am   BACKBONE|DICT|INTERRES
    51   24   84 1    
    52   25   26 2    
    53   27   28 2    
    54   27   29 am   BACKBONE|DICT|INTERRES
    55   29   30 1    
    56   29   85 1    
    57   30   31 1    
    58   30   32 1    
    59   30   86 1    
    60   31   87 1    
    61   31   88 1    
    62   31   89 1    
    63   32   33 2    
    64   32   34 am   BACKBONE|DICT|INTERRES
    65   34   35 1    
    66   34   90 1    
    67   35   36 1    
    68   35   37 1    
    69   35   91 1    
    70   36   92 1    
    71   36   93 1    
    72   36   94 1    
    73   37   38 2    
    74   37   39 am   BACKBONE|DICT|INTERRES
    75   39   40 1    
    76   39   95 1    
    77   40   41 1    
    78   40   42 1    
    79   40   96 1    
    80   41   97 1    
    81   41   98 1    
    82   41   99 1    
    83   42   43 2    
    84   42   44 am   BACKBONE|DICT|INTERRES
    85   44   45 1    
    86   44  100 1    
    87   45   46 1    
    88   45   47 1    
    89   45  101 1    
    90   46  102 1    
    91   46  103 1    
    92   46  104 1    
    93   47   48 2    
    94   47   49 am   BACKBONE|DICT|INTERRES
    95   49   50 1    
    96   49  105 1    
    97   50   51 1    
    98   50   52 1    
    99   50  106 1    
   100   51  107 1    
   101   51  108 1    
   102   51  109 1    
   103   52   53 2    
   104   52   54 am   BACKBONE|DICT|INTERRES
   105   54   55 1    
   106   54  110 1    
   107   55   56 1    
   108   55   59 1    
   109   55  111 1    
   110   56   57 am   BACKBONE|DICT|INTERRES
   111   56   58 2    
   112   57  112 1    
   113   57  113 1    
   114   59   60 1    
   115   59  114 1    
   116   59  115 1    
   117   60   61 1    
   118   61  116 1    
   119   61  117 1    
@<TRIPOS>SUBSTRUCTURE
     1 UNK         1 GROUP             0       ****    0 ROOT    
