@<TRIPOS>MOLECULE
3R8
117   119    1
SMALL
USER_CHARGES


@<TRIPOS>ATOM
      1 CA         18.2941  -21.9072  -44.5825 C.3       0 UNK        -0.2013 
      2 C          18.5149  -23.3734  -44.9230 C.2       0 UNK         0.4866 
      3 O          19.2168  -23.6792  -45.8877 O.2       0 UNK        -0.5176 
      4 N          17.9140  -24.2819  -44.1442 N.am      1 UNK        -0.4884 
      5 CA         18.0782  -25.7327  -44.2769 C.3       1 UNK         0.0853 
      6 C6         17.0280  -26.5066  -43.4373 C.3       10 UNK        -0.0849 
      7 S7         15.4851  -26.8322  -44.3473 S.3       10 UNK        -0.2776 
      8 C8         15.9811  -28.1427  -45.5317 C.3       10 UNK         0.0316 
      9 C9         16.5515  -29.4379  -44.9416 C.ar      10 UNK        -0.0863 
     10 C10        17.2702  -30.2927  -45.7881 C.ar      10 UNK        -0.1009 
     11 C11        17.7609  -31.5197  -45.3280 C.ar      10 UNK        -0.0712 
     12 C12        17.5461  -31.8806  -43.9970 C.ar      10 UNK        -0.0894 
     13 C13        16.8663  -31.0265  -43.1267 C.ar      10 UNK        -0.0745 
     14 C14        16.3470  -29.8220  -43.6085 C.ar      10 UNK        -0.0972 
     15 C15        16.6814  -31.4306  -41.6730 C.3       10 UNK         0.0209 
     16 S16        18.2637  -31.4092  -40.7697 S.3       10 UNK        -0.2568 
     17 C17        18.4071  -29.6665  -40.2540 C.3       10 UNK        -0.0983 
     18 CA         19.8201  -29.0949  -40.5337 C.3       3 UNK         0.0876 
     19 N          20.0307  -28.8204  -41.9612 N.am      3 UNK        -0.4424 
     20 C          21.1778  -28.4054  -42.5211 C.2       2 UNK         0.4918 
     21 O          22.2297  -28.2378  -41.9056 O.2       2 UNK        -0.4875 
     22 CA         21.1301  -28.0536  -44.0161 C.3       2 UNK         0.0481 
     23 CB         21.2591  -29.3273  -44.8576 C.3       2 UNK        -0.1831 
     24 N          19.9103  -27.3385  -44.3985 N.am      2 UNK        -0.4498 
     25 C          19.4867  -26.1877  -43.8558 C.2       1 UNK         0.5027 
     26 O          20.1033  -25.5713  -42.9831 O.2       1 UNK        -0.4969 
     27 C          20.1028  -27.8789  -39.6249 C.2       3 UNK         0.5005 
     28 O          20.5688  -28.0722  -38.5011 O.2       3 UNK        -0.5279 
     29 N          19.8350  -26.6603  -40.1152 N.am      4 UNK        -0.4463 
     30 CA         20.1512  -25.4150  -39.4147 C.3       4 UNK         0.0283 
     31 CB         19.1835  -24.3076  -39.8655 C.3       4 UNK        -0.1875 
     32 C          21.6095  -24.9904  -39.6493 C.2       4 UNK         0.4949 
     33 O          22.2522  -24.5018  -38.7202 O.2       4 UNK        -0.5039 
     34 N          22.0936  -25.1639  -40.8868 N.am      5 UNK        -0.4663 
     35 CA         23.4152  -24.7274  -41.3339 C.3       5 UNK         0.0242 
     36 CB         23.4722  -24.7593  -42.8700 C.3       5 UNK        -0.1982 
     37 C          24.5805  -25.5276  -40.7298 C.2       5 UNK         0.5017 
     38 O          25.5226  -24.9122  -40.2278 O.2       5 UNK        -0.5012 
     39 N          24.5264  -26.8651  -40.8200 N.am      6 UNK        -0.4439 
     40 CA         25.6587  -27.7393  -40.4742 C.3       6 UNK         0.0297 
     41 CB         26.6969  -27.7102  -41.6164 C.3       6 UNK        -0.2006 
     42 C          25.2896  -29.1951  -40.1370 C.2       6 UNK         0.4892 
     43 O          26.1751  -29.9316  -39.7008 O.2       6 UNK        -0.5089 
     44 N          24.0331  -29.6047  -40.3669 N.am      7 UNK        -0.4243 
     45 CA         23.5248  -30.9826  -40.3009 C.3       7 UNK         0.0196 
     46 CB         23.6181  -31.5650  -38.8745 C.3       7 UNK        -0.2007 
     47 C          24.1379  -31.8948  -41.3810 C.2       7 UNK         0.5020 
     48 O          24.3195  -33.0911  -41.1515 O.2       7 UNK        -0.5147 
     49 N          24.4170  -31.3179  -42.5606 N.am      8 UNK        -0.4734 
     50 CA         25.0299  -31.9923  -43.7133 C.3       8 UNK         0.0238 
     51 CB         25.3659  -30.9476  -44.7903 C.3       8 UNK        -0.1912 
     52 C          24.1826  -33.1330  -44.3092 C.2       8 UNK         0.5038 
     53 O          24.7461  -34.0477  -44.9113 O.2       8 UNK        -0.5046 
     54 N          22.8598  -33.0687  -44.1126 N.am      9 UNK        -0.4200 
     55 CA         21.9054  -34.1404  -44.4350 C.3       9 UNK         0.0839 
     56 C          21.9408  -35.3432  -43.4440 C.2       9 UNK         0.5513 
     57 N          22.6602  -35.2857  -42.3285 N.am      9 UNK        -0.7519 
     58 O          21.3025  -36.3608  -43.7003 O.2       9 UNK        -0.4960 
     59 C59        20.4650  -33.5848  -44.5853 C.3       10 UNK        -0.0876 
     60 S60        20.2851  -32.4913  -46.0359 S.3       10 UNK        -0.2414 
     61 C61        18.4777  -32.4752  -46.2765 C.3       10 UNK         0.0169 
     62 H62        19.2469  -21.4268  -44.3617 H         1 UNK         0.0903 
     63 H63        17.8388  -21.3900  -45.4267 H         1 UNK         0.0903 
     64 H64        17.6433  -21.7822  -43.7172 H         1 UNK         0.0903 
     65 H65        17.3552  -23.9714  -43.3626 H         1 UNK         0.3096 
     66 H66        17.9669  -25.9789  -45.3345 H         1 UNK         0.1121 
     67 H67        17.4071  -27.4637  -43.0806 H         1 UNK         0.0849 
     68 H68        16.7810  -25.9574  -42.5268 H         1 UNK         0.0849 
     69 H69        15.1016  -28.4055  -46.1211 H         1 UNK         0.0865 
     70 H70        16.6944  -27.7195  -46.2396 H         1 UNK         0.0865 
     71 H71        17.4230  -30.0159  -46.8227 H         1 UNK         0.1346 
     72 H72        17.9060  -32.8309  -43.6301 H         1 UNK         0.1412 
     73 H73        15.7804  -29.1906  -42.9388 H         1 UNK         0.1426 
     74 H74        15.9553  -30.7908  -41.1690 H         1 UNK         0.0716 
     75 H75        16.2723  -32.4413  -41.6366 H         1 UNK         0.0716 
     76 H76        18.1773  -29.6440  -39.1865 H         1 UNK         0.0695 
     77 H77        17.6414  -29.0592  -40.7401 H         1 UNK         0.0695 
     78 H78        20.5482  -29.8506  -40.2402 H         1 UNK         0.0983 
     79 H79        19.2333  -28.9719  -42.5605 H         1 UNK         0.3095 
     80 H80        21.9797  -27.4070  -44.2398 H         1 UNK         0.0454 
     81 H81        20.4033  -29.9843  -44.7046 H         1 UNK         0.0851 
     82 H82        21.3231  -29.1012  -45.9220 H         1 UNK         0.0851 
     83 H83        22.1548  -29.8892  -44.5924 H         1 UNK         0.0851 
     84 H84        19.3363  -27.7860  -45.0987 H         1 UNK         0.2976 
     85 H85        19.5097  -26.5735  -41.0681 H         1 UNK         0.3116 
     86 H86        20.0115  -25.5602  -38.3410 H         1 UNK         0.0646 
     87 H87        18.1469  -24.5834  -39.6718 H         1 UNK         0.0847 
     88 H88        19.3774  -23.3806  -39.3244 H         1 UNK         0.0847 
     89 H89        19.2790  -24.0865  -40.9289 H         1 UNK         0.0847 
     90 H90        21.4668  -25.5161  -41.6041 H         1 UNK         0.3040 
     91 H91        23.5394  -23.6884  -41.0199 H         1 UNK         0.1015 
     92 H92        23.3512  -25.7702  -43.2584 H         1 UNK         0.0786 
     93 H93        24.4299  -24.3838  -43.2328 H         1 UNK         0.0786 
     94 H94        22.6919  -24.1372  -43.3096 H         1 UNK         0.0786 
     95 H95        23.7038  -27.2868  -41.2425 H         1 UNK         0.3172 
     96 H96        26.1316  -27.3462  -39.5716 H         1 UNK         0.0595 
     97 H97        26.2659  -28.0534  -42.5575 H         1 UNK         0.0839 
     98 H98        27.5500  -28.3532  -41.3949 H         1 UNK         0.0839 
     99 H99        27.0919  -26.7070  -41.7759 H         1 UNK         0.0839 
    100 H100       23.3713  -28.9405  -40.7591 H         1 UNK         0.2998 
    101 H101       22.4676  -30.9260  -40.5531 H         1 UNK         0.0822 
    102 H102       23.0911  -32.5176  -38.8081 H         1 UNK         0.0787 
    103 H103       24.6501  -31.7472  -38.5740 H         1 UNK         0.0787 
    104 H104       23.1671  -30.8944  -38.1431 H         1 UNK         0.0787 
    105 H105       24.2389  -30.3289  -42.6568 H         1 UNK         0.3055 
    106 H106       25.9647  -32.4410  -43.3691 H         1 UNK         0.1106 
    107 H107       26.0421  -30.1834  -44.4065 H         1 UNK         0.0828 
    108 H108       25.8607  -31.4139  -45.6435 H         1 UNK         0.0828 
    109 H109       24.4725  -30.4494  -45.1672 H         1 UNK         0.0828 
    110 H110       22.4916  -32.2810  -43.6038 H         1 UNK         0.2931 
    111 H111       22.1955  -34.5563  -45.4020 H         1 UNK         0.0412 
    112 H112       23.2097  -34.4678  -42.0884 H         1 UNK         0.3472 
    113 H113       22.6651  -36.0825  -41.7117 H         1 UNK         0.3472 
    114 H114       19.7478  -34.4010  -44.6930 H         1 UNK         0.0970 
    115 H115       20.1803  -33.0383  -43.6852 H         1 UNK         0.0970 
    116 H116       18.2761  -32.1921  -47.3107 H         1 UNK         0.0612 
    117 H117       18.0784  -33.4837  -46.1605 H         1 UNK         0.0612 
@<TRIPOS>BOND
     1    1    2 1    
     2    1   62 1    
     3    1   63 1    
     4    1   64 1    
     5    2    3 2    
     6    2    4 am   BACKBONE|DICT|INTERRES
     7    4    5 1    
     8    4   65 1    
     9    5    6 1    
    10    5   25 1    
    11    5   66 1    
    12    6    7 1    
    13    6   67 1    
    14    6   68 1    
    15    7    8 1    
    16    8    9 1    
    17    8   69 1    
    18    8   70 1    
    19    9   10 ar   
    20    9   14 ar   
    21   10   11 ar   
    22   10   71 1    
    23   11   12 ar   
    24   11   61 1    
    25   12   13 ar   
    26   12   72 1    
    27   13   14 ar   
    28   13   15 1    
    29   14   73 1    
    30   15   16 1    
    31   15   74 1    
    32   15   75 1    
    33   16   17 1    
    34   17   18 1    
    35   17   76 1    
    36   17   77 1    
    37   18   19 1    
    38   18   27 1    
    39   18   78 1    
    40   19   20 am   BACKBONE|DICT|INTERRES
    41   19   79 1    
    42   20   21 2    
    43   20   22 1    
    44   22   23 1    
    45   22   24 1    
    46   22   80 1    
    47   23   81 1    
    48   23   82 1    
    49   23   83 1    
    50   24   25 am   BACKBONE|DICT|INTERRES
    51   24   84 1    
    52   25   26 2    
    53   27   28 2    
    54   27   29 am   BACKBONE|DICT|INTERRES
    55   29   30 1    
    56   29   85 1    
    57   30   31 1    
    58   30   32 1    
    59   30   86 1    
    60   31   87 1    
    61   31   88 1    
    62   31   89 1    
    63   32   33 2    
    64   32   34 am   BACKBONE|DICT|INTERRES
    65   34   35 1    
    66   34   90 1    
    67   35   36 1    
    68   35   37 1    
    69   35   91 1    
    70   36   92 1    
    71   36   93 1    
    72   36   94 1    
    73   37   38 2    
    74   37   39 am   BACKBONE|DICT|INTERRES
    75   39   40 1    
    76   39   95 1    
    77   40   41 1    
    78   40   42 1    
    79   40   96 1    
    80   41   97 1    
    81   41   98 1    
    82   41   99 1    
    83   42   43 2    
    84   42   44 am   BACKBONE|DICT|INTERRES
    85   44   45 1    
    86   44  100 1    
    87   45   46 1    
    88   45   47 1    
    89   45  101 1    
    90   46  102 1    
    91   46  103 1    
    92   46  104 1    
    93   47   48 2    
    94   47   49 am   BACKBONE|DICT|INTERRES
    95   49   50 1    
    96   49  105 1    
    97   50   51 1    
    98   50   52 1    
    99   50  106 1    
   100   51  107 1    
   101   51  108 1    
   102   51  109 1    
   103   52   53 2    
   104   52   54 am   BACKBONE|DICT|INTERRES
   105   54   55 1    
   106   54  110 1    
   107   55   56 1    
   108   55   59 1    
   109   55  111 1    
   110   56   57 am   BACKBONE|DICT|INTERRES
   111   56   58 2    
   112   57  112 1    
   113   57  113 1    
   114   59   60 1    
   115   59  114 1    
   116   59  115 1    
   117   60   61 1    
   118   61  116 1    
   119   61  117 1    
@<TRIPOS>SUBSTRUCTURE
     1 UNK         1 GROUP             0       ****    0 ROOT    
