@<TRIPOS>MOLECULE
3R8
117   119    1
SMALL
USER_CHARGES


@<TRIPOS>ATOM
      1 CA         18.9726  -25.2657  -39.2181 C.3       0 UNK        -0.2013 
      2 C          18.3505  -25.1006  -40.5966 C.2       0 UNK         0.4866 
      3 O          17.8495  -24.0217  -40.9159 O.2       0 UNK        -0.5176 
      4 N          18.3623  -26.1658  -41.4088 N.am      1 UNK        -0.4884 
      5 CA         17.8288  -26.1738  -42.7750 C.3       1 UNK         0.0853 
      6 C6         17.5520  -27.6196  -43.2594 C.3       10 UNK        -0.0849 
      7 S7         16.2330  -27.6724  -44.5189 S.3       10 UNK        -0.2776 
      8 C8         15.9002  -29.4614  -44.6198 C.3       10 UNK         0.0316 
      9 C9         17.1162  -30.2461  -45.0933 C.ar      10 UNK        -0.0863 
     10 C10        17.6627  -31.2548  -44.2941 C.ar      10 UNK        -0.1009 
     11 C11        18.7802  -31.9745  -44.7275 C.ar      10 UNK        -0.0712 
     12 C12        19.3618  -31.6664  -45.9616 C.ar      10 UNK        -0.0894 
     13 C13        18.8229  -30.6626  -46.7723 C.ar      10 UNK        -0.0745 
     14 C14        17.6890  -29.9695  -46.3380 C.ar      10 UNK        -0.0972 
     15 C15        19.4498  -30.3524  -48.1273 C.3       10 UNK         0.0209 
     16 S16        19.7661  -28.5747  -48.3822 S.3       10 UNK        -0.2568 
     17 C17        21.0754  -28.2600  -47.1541 C.3       10 UNK        -0.0983 
     18 CA         21.3695  -26.7466  -47.0054 C.3       3 UNK         0.0876 
     19 N          20.1937  -26.0108  -46.5255 N.am      3 UNK        -0.4424 
     20 C          20.0476  -24.6800  -46.5665 C.2       2 UNK         0.4918 
     21 O          20.8610  -23.9210  -47.0938 O.2       2 UNK        -0.4875 
     22 CA         18.8014  -24.0826  -45.8845 C.3       2 UNK         0.0481 
     23 CB         17.7472  -23.7137  -46.9406 C.3       2 UNK        -0.1831 
     24 N          18.1716  -24.9224  -44.8557 N.am      2 UNK        -0.4498 
     25 C          18.7530  -25.4064  -43.7478 C.2       1 UNK         0.5027 
     26 O          19.9587  -25.2996  -43.5036 O.2       1 UNK        -0.4969 
     27 C          22.6246  -26.5202  -46.1297 C.2       3 UNK         0.5005 
     28 O          23.7247  -26.8390  -46.5829 O.2       3 UNK        -0.5279 
     29 N          22.4506  -25.9928  -44.9040 N.am      4 UNK        -0.4463 
     30 CA         23.4862  -25.6920  -43.9038 C.3       4 UNK         0.0283 
     31 CB         24.4795  -24.6311  -44.4233 C.3       4 UNK        -0.1875 
     32 C          24.1921  -26.9420  -43.3405 C.2       4 UNK         0.4949 
     33 O          25.2810  -26.8322  -42.7771 O.2       4 UNK        -0.5039 
     34 N          23.5368  -28.1036  -43.4555 N.am      5 UNK        -0.4663 
     35 CA         23.9917  -29.4034  -42.9539 C.3       5 UNK         0.0242 
     36 CB         23.5946  -30.4822  -43.9771 C.3       5 UNK        -0.1982 
     37 C          23.4376  -29.7081  -41.5482 C.2       5 UNK         0.5017 
     38 O          23.3831  -30.8726  -41.1510 O.2       5 UNK        -0.5012 
     39 N          23.0324  -28.6603  -40.8151 N.am      6 UNK        -0.4439 
     40 CA         22.3602  -28.6873  -39.5101 C.3       6 UNK         0.0297 
     41 CB         22.1008  -27.2416  -39.0596 C.3       6 UNK        -0.2006 
     42 C          23.0853  -29.4688  -38.3989 C.2       6 UNK         0.4892 
     43 O          22.4226  -29.9362  -37.4735 O.2       6 UNK        -0.5089 
     44 N          24.4098  -29.6361  -38.5204 N.am      7 UNK        -0.4243 
     45 CA         25.2266  -30.4910  -37.6532 C.3       7 UNK         0.0196 
     46 CB         26.7091  -30.3091  -38.0164 C.3       7 UNK        -0.2007 
     47 C          24.8358  -31.9814  -37.7148 C.2       7 UNK         0.5020 
     48 O          25.0199  -32.6887  -36.7238 O.2       7 UNK        -0.5147 
     49 N          24.2978  -32.4240  -38.8593 N.am      8 UNK        -0.4734 
     50 CA         23.7472  -33.7639  -39.0634 C.3       8 UNK         0.0238 
     51 CB         24.3367  -34.3616  -40.3522 C.3       8 UNK        -0.1912 
     52 C          22.2140  -33.7234  -39.1467 C.2       8 UNK         0.5038 
     53 O          21.5577  -34.5889  -38.5661 O.2       8 UNK        -0.5046 
     54 N          21.6752  -32.7386  -39.8771 N.am      9 UNK        -0.4200 
     55 CA         20.2408  -32.5942  -40.1707 C.3       9 UNK         0.0839 
     56 C          19.3784  -32.0453  -38.9998 C.2       9 UNK         0.5513 
     57 N          19.9496  -31.4706  -37.9496 N.am      9 UNK        -0.7519 
     58 O          18.1558  -32.1533  -39.0439 O.2       9 UNK        -0.4960 
     59 C59        20.0088  -31.7772  -41.4684 C.3       10 UNK        -0.0876 
     60 S60        20.7888  -32.5709  -42.9160 S.3       10 UNK        -0.2414 
     61 C61        19.3466  -33.1066  -43.8828 C.3       10 UNK         0.0169 
     62 H62        19.1529  -26.3130  -38.9769 H         1 UNK         0.0903 
     63 H63        19.9204  -24.7304  -39.1668 H         1 UNK         0.0903 
     64 H64        18.3098  -24.8574  -38.4554 H         1 UNK         0.0903 
     65 H65        18.8173  -27.0152  -41.1079 H         1 UNK         0.3096 
     66 H66        16.8774  -25.6367  -42.7371 H         1 UNK         0.1121 
     67 H67        18.4552  -28.0992  -43.6438 H         1 UNK         0.0849 
     68 H68        17.2178  -28.2369  -42.4235 H         1 UNK         0.0849 
     69 H69        15.5571  -29.8165  -43.6468 H         1 UNK         0.0865 
     70 H70        15.0769  -29.6299  -45.3153 H         1 UNK         0.0865 
     71 H71        17.2119  -31.4881  -43.3393 H         1 UNK         0.1346 
     72 H72        20.2298  -32.2201  -46.2931 H         1 UNK         0.1412 
     73 H73        17.2603  -29.1976  -46.9629 H         1 UNK         0.1426 
     74 H74        18.7761  -30.7031  -48.9101 H         1 UNK         0.0716 
     75 H75        20.3860  -30.8973  -48.2587 H         1 UNK         0.0716 
     76 H76        20.7824  -28.6900  -46.1943 H         1 UNK         0.0695 
     77 H77        21.9673  -28.8011  -47.4770 H         1 UNK         0.0695 
     78 H78        21.6191  -26.3552  -47.9944 H         1 UNK         0.0983 
     79 H79        19.4590  -26.5626  -46.1087 H         1 UNK         0.3095 
     80 H80        19.1218  -23.1632  -45.3906 H         1 UNK         0.0454 
     81 H81        18.1708  -23.0626  -47.7068 H         1 UNK         0.0851 
     82 H82        17.3560  -24.5980  -47.4455 H         1 UNK         0.0851 
     83 H83        16.9071  -23.1797  -46.4964 H         1 UNK         0.0851 
     84 H84        17.1879  -25.1141  -44.9886 H         1 UNK         0.2976 
     85 H85        21.5031  -25.7681  -44.6087 H         1 UNK         0.3116 
     86 H86        22.9546  -25.2496  -43.0599 H         1 UNK         0.0646 
     87 H87        25.1376  -24.2870  -43.6246 H         1 UNK         0.0847 
     88 H88        23.9584  -23.7556  -44.8107 H         1 UNK         0.0847 
     89 H89        25.1152  -25.0230  -45.2176 H         1 UNK         0.0847 
     90 H90        22.6362  -28.0896  -43.9118 H         1 UNK         0.3040 
     91 H91        25.0805  -29.4059  -42.8685 H         1 UNK         0.1015 
     92 H92        24.0622  -30.2978  -44.9444 H         1 UNK         0.0786 
     93 H93        22.5157  -30.5122  -44.1311 H         1 UNK         0.0786 
     94 H94        23.9082  -31.4756  -43.6531 H         1 UNK         0.0786 
     95 H95        23.1537  -27.7492  -41.2319 H         1 UNK         0.3172 
     96 H96        21.3950  -29.1741  -39.6615 H         1 UNK         0.0595 
     97 H97        21.5338  -27.2180  -38.1277 H         1 UNK         0.0839 
     98 H98        21.5264  -26.6903  -39.8036 H         1 UNK         0.0839 
     99 H99        23.0319  -26.7000  -38.8874 H         1 UNK         0.0839 
    100 H100       24.8721  -29.2116  -39.3109 H         1 UNK         0.2998 
    101 H101       25.0798  -30.1569  -36.6238 H         1 UNK         0.0822 
    102 H102       27.0233  -29.2719  -37.8984 H         1 UNK         0.0787 
    103 H103       27.3459  -30.9142  -37.3693 H         1 UNK         0.0787 
    104 H104       26.9123  -30.6085  -39.0455 H         1 UNK         0.0787 
    105 H105       24.1635  -31.7636  -39.6196 H         1 UNK         0.3055 
    106 H106       24.0146  -34.4196  -38.2315 H         1 UNK         0.1106 
    107 H107       24.1053  -33.7510  -41.2264 H         1 UNK         0.0828 
    108 H108       25.4210  -34.4516  -40.2853 H         1 UNK         0.0828 
    109 H109       23.9392  -35.3606  -40.5368 H         1 UNK         0.0828 
    110 H110       22.2896  -32.0816  -40.3505 H         1 UNK         0.2931 
    111 H111       19.8558  -33.5985  -40.3604 H         1 UNK         0.0412 
    112 H112       19.3643  -31.1325  -37.2026 H         1 UNK         0.3472 
    113 H113       20.9489  -31.3157  -37.9038 H         1 UNK         0.3472 
    114 H114       20.4172  -30.7709  -41.3660 H         1 UNK         0.0970 
    115 H115       18.9424  -31.6494  -41.6587 H         1 UNK         0.0970 
    116 H116       18.5857  -33.5186  -43.2180 H         1 UNK         0.0612 
    117 H117       19.6522  -33.9256  -44.5356 H         1 UNK         0.0612 
@<TRIPOS>BOND
     1    1    2 1    
     2    1   62 1    
     3    1   63 1    
     4    1   64 1    
     5    2    3 2    
     6    2    4 am   BACKBONE|DICT|INTERRES
     7    4    5 1    
     8    4   65 1    
     9    5    6 1    
    10    5   25 1    
    11    5   66 1    
    12    6    7 1    
    13    6   67 1    
    14    6   68 1    
    15    7    8 1    
    16    8    9 1    
    17    8   69 1    
    18    8   70 1    
    19    9   10 ar   
    20    9   14 ar   
    21   10   11 ar   
    22   10   71 1    
    23   11   12 ar   
    24   11   61 1    
    25   12   13 ar   
    26   12   72 1    
    27   13   14 ar   
    28   13   15 1    
    29   14   73 1    
    30   15   16 1    
    31   15   74 1    
    32   15   75 1    
    33   16   17 1    
    34   17   18 1    
    35   17   76 1    
    36   17   77 1    
    37   18   19 1    
    38   18   27 1    
    39   18   78 1    
    40   19   20 am   BACKBONE|DICT|INTERRES
    41   19   79 1    
    42   20   21 2    
    43   20   22 1    
    44   22   23 1    
    45   22   24 1    
    46   22   80 1    
    47   23   81 1    
    48   23   82 1    
    49   23   83 1    
    50   24   25 am   BACKBONE|DICT|INTERRES
    51   24   84 1    
    52   25   26 2    
    53   27   28 2    
    54   27   29 am   BACKBONE|DICT|INTERRES
    55   29   30 1    
    56   29   85 1    
    57   30   31 1    
    58   30   32 1    
    59   30   86 1    
    60   31   87 1    
    61   31   88 1    
    62   31   89 1    
    63   32   33 2    
    64   32   34 am   BACKBONE|DICT|INTERRES
    65   34   35 1    
    66   34   90 1    
    67   35   36 1    
    68   35   37 1    
    69   35   91 1    
    70   36   92 1    
    71   36   93 1    
    72   36   94 1    
    73   37   38 2    
    74   37   39 am   BACKBONE|DICT|INTERRES
    75   39   40 1    
    76   39   95 1    
    77   40   41 1    
    78   40   42 1    
    79   40   96 1    
    80   41   97 1    
    81   41   98 1    
    82   41   99 1    
    83   42   43 2    
    84   42   44 am   BACKBONE|DICT|INTERRES
    85   44   45 1    
    86   44  100 1    
    87   45   46 1    
    88   45   47 1    
    89   45  101 1    
    90   46  102 1    
    91   46  103 1    
    92   46  104 1    
    93   47   48 2    
    94   47   49 am   BACKBONE|DICT|INTERRES
    95   49   50 1    
    96   49  105 1    
    97   50   51 1    
    98   50   52 1    
    99   50  106 1    
   100   51  107 1    
   101   51  108 1    
   102   51  109 1    
   103   52   53 2    
   104   52   54 am   BACKBONE|DICT|INTERRES
   105   54   55 1    
   106   54  110 1    
   107   55   56 1    
   108   55   59 1    
   109   55  111 1    
   110   56   57 am   BACKBONE|DICT|INTERRES
   111   56   58 2    
   112   57  112 1    
   113   57  113 1    
   114   59   60 1    
   115   59  114 1    
   116   59  115 1    
   117   60   61 1    
   118   61  116 1    
   119   61  117 1    
@<TRIPOS>SUBSTRUCTURE
     1 UNK         1 GROUP             0       ****    0 ROOT    
