@<TRIPOS>MOLECULE
3R8
117   119    1
SMALL
USER_CHARGES


@<TRIPOS>ATOM
      1 CA         22.0198  -30.5492  -48.3225 C.3       0 UNK        -0.2013 
      2 C          21.2145  -29.8686  -47.2265 C.2       0 UNK         0.4866 
      3 O          21.6368  -29.8591  -46.0700 O.2       0 UNK        -0.5176 
      4 N          20.0628  -29.2834  -47.5779 N.am      1 UNK        -0.4884 
      5 CA         19.1304  -28.6052  -46.6654 C.3       1 UNK         0.0853 
      6 C6         17.6791  -28.6361  -47.2123 C.3       10 UNK        -0.0849 
      7 S7         17.0286  -30.3433  -47.2344 S.3       10 UNK        -0.2776 
      8 C8         15.8959  -30.3543  -45.8019 C.3       10 UNK         0.0316 
      9 C9         16.5422  -29.8161  -44.5305 C.ar      10 UNK        -0.0863 
     10 C10        17.5722  -30.5208  -43.9014 C.ar      10 UNK        -0.1009 
     11 C11        18.1800  -30.0145  -42.7471 C.ar      10 UNK        -0.0712 
     12 C12        17.7477  -28.7915  -42.2209 C.ar      10 UNK        -0.0894 
     13 C13        16.7127  -28.0806  -42.8386 C.ar      10 UNK        -0.0745 
     14 C14        16.1119  -28.6025  -43.9874 C.ar      10 UNK        -0.0972 
     15 C15        16.2224  -26.7550  -42.2719 C.3       10 UNK         0.0209 
     16 S16        16.6884  -25.3613  -43.3508 S.3       10 UNK        -0.2568 
     17 C17        17.8121  -24.4036  -42.2809 C.3       10 UNK        -0.0983 
     18 CA         19.2331  -25.0098  -42.1983 C.3       3 UNK         0.0876 
     19 N          19.8441  -25.1776  -43.5220 N.am      3 UNK        -0.4424 
     20 C          21.0170  -25.7780  -43.7530 C.2       2 UNK         0.4918 
     21 O          21.7164  -26.2748  -42.8694 O.2       2 UNK        -0.4875 
     22 CA         21.4493  -25.8952  -45.2205 C.3       2 UNK         0.0481 
     23 CB         22.9790  -25.9887  -45.3659 C.3       2 UNK        -0.1831 
     24 N          20.8449  -27.0962  -45.7856 N.am      2 UNK        -0.4498 
     25 C          19.6130  -27.1839  -46.3000 C.2       1 UNK         0.5027 
     26 O          18.8852  -26.2063  -46.4841 O.2       1 UNK        -0.4969 
     27 C          20.1245  -24.1859  -41.2432 C.2       3 UNK         0.5005 
     28 O          20.9263  -23.3650  -41.6971 O.2       3 UNK        -0.5279 
     29 N          19.9883  -24.4493  -39.9357 N.am      4 UNK        -0.4463 
     30 CA         20.7877  -23.9389  -38.8097 C.3       4 UNK         0.0283 
     31 CB         20.8022  -22.3986  -38.7422 C.3       4 UNK        -0.1875 
     32 C          22.2120  -24.5226  -38.7479 C.2       4 UNK         0.4949 
     33 O          22.6606  -24.8762  -37.6575 O.2       4 UNK        -0.5039 
     34 N          22.8835  -24.6526  -39.9004 N.am      5 UNK        -0.4663 
     35 CA         24.1486  -25.3786  -40.0459 C.3       5 UNK         0.0242 
     36 CB         24.8059  -25.0186  -41.3887 C.3       5 UNK        -0.1982 
     37 C          23.9372  -26.8966  -39.9206 C.2       5 UNK         0.5017 
     38 O          24.6666  -27.5541  -39.1773 O.2       5 UNK        -0.5012 
     39 N          22.9236  -27.4079  -40.6344 N.am      6 UNK        -0.4439 
     40 CA         22.3785  -28.7701  -40.6641 C.3       6 UNK         0.0297 
     41 CB         21.8320  -29.1852  -39.2848 C.3       6 UNK        -0.2006 
     42 C          23.3122  -29.8493  -41.2372 C.2       6 UNK         0.4892 
     43 O          22.8459  -30.6813  -42.0160 O.2       6 UNK        -0.5089 
     44 N          24.5921  -29.8305  -40.8402 N.am      7 UNK        -0.4243 
     45 CA         25.6251  -30.8294  -41.1323 C.3       7 UNK         0.0196 
     46 CB         26.0199  -30.7869  -42.6271 C.3       7 UNK        -0.2007 
     47 C          25.1970  -32.2192  -40.6181 C.2       7 UNK         0.5020 
     48 O          24.8125  -32.3315  -39.4524 O.2       7 UNK        -0.5147 
     49 N          25.2549  -33.2463  -41.4756 N.am      8 UNK        -0.4734 
     50 CA         24.7583  -34.5923  -41.1731 C.3       8 UNK         0.0238 
     51 CB         25.3634  -35.5936  -42.1708 C.3       8 UNK        -0.1912 
     52 C          23.2204  -34.6823  -41.1869 C.2       8 UNK         0.5038 
     53 O          22.6653  -35.5076  -40.4601 O.2       8 UNK        -0.5046 
     54 N          22.5712  -33.8405  -42.0054 N.am      9 UNK        -0.4200 
     55 CA         21.1200  -33.7939  -42.2406 C.3       9 UNK         0.0839 
     56 C          20.5378  -35.1383  -42.7844 C.2       9 UNK         0.5513 
     57 N          19.2569  -35.4151  -42.5848 N.am      9 UNK        -0.7519 
     58 O          21.2305  -35.9146  -43.4402 O.2       9 UNK        -0.4960 
     59 C59        20.3673  -33.1736  -41.0241 C.3       10 UNK        -0.0876 
     60 S60        18.7721  -32.4007  -41.4665 S.3       10 UNK        -0.2414 
     61 C61        19.3196  -30.7811  -42.0903 C.3       10 UNK         0.0169 
     62 H62        23.0034  -30.0878  -48.4066 H         1 UNK         0.0903 
     63 H63        22.1572  -31.6039  -48.0855 H         1 UNK         0.0903 
     64 H64        21.5282  -30.4810  -49.2928 H         1 UNK         0.0903 
     65 H65        19.7745  -29.3082  -48.5460 H         1 UNK         0.3096 
     66 H66        19.1315  -29.1502  -45.7196 H         1 UNK         0.1121 
     67 H67        17.0135  -28.0106  -46.6152 H         1 UNK         0.0849 
     68 H68        17.6401  -28.2280  -48.2236 H         1 UNK         0.0849 
     69 H69        15.0045  -29.7781  -46.0554 H         1 UNK         0.0865 
     70 H70        15.5557  -31.3760  -45.6270 H         1 UNK         0.0865 
     71 H71        17.9109  -31.4600  -44.3179 H         1 UNK         0.1346 
     72 H72        18.2156  -28.3954  -41.3303 H         1 UNK         0.1412 
     73 H73        15.3152  -28.0492  -44.4663 H         1 UNK         0.1426 
     74 H74        16.6016  -26.6029  -41.2606 H         1 UNK         0.0716 
     75 H75        15.1352  -26.7824  -42.1852 H         1 UNK         0.0716 
     76 H76        17.3609  -24.3205  -41.2903 H         1 UNK         0.0695 
     77 H77        17.8588  -23.3866  -42.6756 H         1 UNK         0.0695 
     78 H78        19.1502  -26.0126  -41.7745 H         1 UNK         0.0983 
     79 H79        19.3053  -24.8411  -44.3076 H         1 UNK         0.3095 
     80 H80        21.1084  -25.0107  -45.7626 H         1 UNK         0.0454 
     81 H81        23.3829  -26.8742  -44.8728 H         1 UNK         0.0851 
     82 H82        23.4653  -25.1186  -44.9232 H         1 UNK         0.0851 
     83 H83        23.2745  -26.0275  -46.4143 H         1 UNK         0.0851 
     84 H84        21.3573  -27.9665  -45.6685 H         1 UNK         0.2976 
     85 H85        19.3062  -25.1474  -39.6711 H         1 UNK         0.3116 
     86 H86        20.2729  -24.2907  -37.9140 H         1 UNK         0.0646 
     87 H87        19.7920  -21.9900  -38.7617 H         1 UNK         0.0847 
     88 H88        21.2715  -22.0585  -37.8183 H         1 UNK         0.0847 
     89 H89        21.3614  -21.9537  -39.5654 H         1 UNK         0.0847 
     90 H90        22.4387  -24.3044  -40.7443 H         1 UNK         0.3040 
     91 H91        24.8206  -25.0682  -39.2424 H         1 UNK         0.1015 
     92 H92        24.1717  -25.2761  -42.2376 H         1 UNK         0.0786 
     93 H93        25.7505  -25.5496  -41.5146 H         1 UNK         0.0786 
     94 H94        25.0242  -23.9522  -41.4476 H         1 UNK         0.0786 
     95 H95        22.4746  -26.7849  -41.3048 H         1 UNK         0.3172 
     96 H96        21.5303  -28.7097  -41.3470 H         1 UNK         0.0595 
     97 H97        22.6214  -29.2440  -38.5350 H         1 UNK         0.0839 
     98 H98        21.0817  -28.4800  -38.9274 H         1 UNK         0.0839 
     99 H99        21.3596  -30.1671  -39.3308 H         1 UNK         0.0839 
    100 H100       24.8421  -29.1112  -40.1652 H         1 UNK         0.2998 
    101 H101       26.5019  -30.5457  -40.5483 H         1 UNK         0.0822 
    102 H102       26.8676  -31.4418  -42.8325 H         1 UNK         0.0787 
    103 H103       25.1994  -31.0836  -43.2815 H         1 UNK         0.0787 
    104 H104       26.3214  -29.7809  -42.9196 H         1 UNK         0.0787 
    105 H105       25.5919  -33.0763  -42.4125 H         1 UNK         0.3055 
    106 H106       25.0916  -34.8683  -40.1698 H         1 UNK         0.1106 
    107 H107       26.4524  -35.5944  -42.1226 H         1 UNK         0.0828 
    108 H108       25.0304  -36.6093  -41.9524 H         1 UNK         0.0828 
    109 H109       25.0708  -35.3703  -43.1976 H         1 UNK         0.0828 
    110 H110       23.1152  -33.1713  -42.5307 H         1 UNK         0.2931 
    111 H111       21.0203  -33.1004  -43.0756 H         1 UNK         0.0412 
    112 H112       18.8691  -36.2708  -42.9500 H         1 UNK         0.3472 
    113 H113       18.6702  -34.7598  -42.0888 H         1 UNK         0.3472 
    114 H114       20.2010  -33.9263  -40.2515 H         1 UNK         0.0970 
    115 H115       20.9847  -32.4054  -40.5553 H         1 UNK         0.0970 
    116 H116       19.7376  -30.2146  -41.2588 H         1 UNK         0.0612 
    117 H117       20.1221  -30.9124  -42.8173 H         1 UNK         0.0612 
@<TRIPOS>BOND
     1    1    2 1    
     2    1   62 1    
     3    1   63 1    
     4    1   64 1    
     5    2    3 2    
     6    2    4 am   BACKBONE|DICT|INTERRES
     7    4    5 1    
     8    4   65 1    
     9    5    6 1    
    10    5   25 1    
    11    5   66 1    
    12    6    7 1    
    13    6   67 1    
    14    6   68 1    
    15    7    8 1    
    16    8    9 1    
    17    8   69 1    
    18    8   70 1    
    19    9   10 ar   
    20    9   14 ar   
    21   10   11 ar   
    22   10   71 1    
    23   11   12 ar   
    24   11   61 1    
    25   12   13 ar   
    26   12   72 1    
    27   13   14 ar   
    28   13   15 1    
    29   14   73 1    
    30   15   16 1    
    31   15   74 1    
    32   15   75 1    
    33   16   17 1    
    34   17   18 1    
    35   17   76 1    
    36   17   77 1    
    37   18   19 1    
    38   18   27 1    
    39   18   78 1    
    40   19   20 am   BACKBONE|DICT|INTERRES
    41   19   79 1    
    42   20   21 2    
    43   20   22 1    
    44   22   23 1    
    45   22   24 1    
    46   22   80 1    
    47   23   81 1    
    48   23   82 1    
    49   23   83 1    
    50   24   25 am   BACKBONE|DICT|INTERRES
    51   24   84 1    
    52   25   26 2    
    53   27   28 2    
    54   27   29 am   BACKBONE|DICT|INTERRES
    55   29   30 1    
    56   29   85 1    
    57   30   31 1    
    58   30   32 1    
    59   30   86 1    
    60   31   87 1    
    61   31   88 1    
    62   31   89 1    
    63   32   33 2    
    64   32   34 am   BACKBONE|DICT|INTERRES
    65   34   35 1    
    66   34   90 1    
    67   35   36 1    
    68   35   37 1    
    69   35   91 1    
    70   36   92 1    
    71   36   93 1    
    72   36   94 1    
    73   37   38 2    
    74   37   39 am   BACKBONE|DICT|INTERRES
    75   39   40 1    
    76   39   95 1    
    77   40   41 1    
    78   40   42 1    
    79   40   96 1    
    80   41   97 1    
    81   41   98 1    
    82   41   99 1    
    83   42   43 2    
    84   42   44 am   BACKBONE|DICT|INTERRES
    85   44   45 1    
    86   44  100 1    
    87   45   46 1    
    88   45   47 1    
    89   45  101 1    
    90   46  102 1    
    91   46  103 1    
    92   46  104 1    
    93   47   48 2    
    94   47   49 am   BACKBONE|DICT|INTERRES
    95   49   50 1    
    96   49  105 1    
    97   50   51 1    
    98   50   52 1    
    99   50  106 1    
   100   51  107 1    
   101   51  108 1    
   102   51  109 1    
   103   52   53 2    
   104   52   54 am   BACKBONE|DICT|INTERRES
   105   54   55 1    
   106   54  110 1    
   107   55   56 1    
   108   55   59 1    
   109   55  111 1    
   110   56   57 am   BACKBONE|DICT|INTERRES
   111   56   58 2    
   112   57  112 1    
   113   57  113 1    
   114   59   60 1    
   115   59  114 1    
   116   59  115 1    
   117   60   61 1    
   118   61  116 1    
   119   61  117 1    
@<TRIPOS>SUBSTRUCTURE
     1 UNK         1 GROUP             0       ****    0 ROOT    
