@<TRIPOS>MOLECULE
3R8
117   119    1
SMALL
USER_CHARGES


@<TRIPOS>ATOM
      1 CA         13.1224  -26.0689  -45.6579 C.3       0 UNK        -0.2013 
      2 C          14.5479  -26.4787  -45.3210 C.2       0 UNK         0.4866 
      3 O          15.2441  -25.7518  -44.6102 O.2       0 UNK        -0.5176 
      4 N          14.9917  -27.6391  -45.8211 N.am      1 UNK        -0.4884 
      5 CA         16.3270  -28.1992  -45.5863 C.3       1 UNK         0.0853 
      6 C6         16.7750  -29.1362  -46.7391 C.3       10 UNK        -0.0849 
      7 S7         17.2746  -28.1543  -48.1982 S.3       10 UNK        -0.2776 
      8 C8         19.1023  -28.2671  -48.1745 C.3       10 UNK         0.0316 
      9 C9         19.7003  -28.0972  -46.7814 C.ar      10 UNK        -0.0863 
     10 C10        20.3980  -29.1531  -46.1887 C.ar      10 UNK        -0.1009 
     11 C11        20.8885  -29.0383  -44.8863 C.ar      10 UNK        -0.0712 
     12 C12        20.6695  -27.8582  -44.1714 C.ar      10 UNK        -0.0894 
     13 C13        19.9923  -26.7799  -44.7570 C.ar      10 UNK        -0.0745 
     14 C14        19.5329  -26.9036  -46.0726 C.ar      10 UNK        -0.0972 
     15 C15        19.6979  -25.4873  -43.9954 C.3       10 UNK         0.0209 
     16 S16        20.8964  -25.0956  -42.6760 S.3       10 UNK        -0.2568 
     17 C17        19.8451  -25.1188  -41.1785 C.3       10 UNK        -0.0983 
     18 CA         19.6497  -26.4990  -40.4824 C.3       3 UNK         0.0876 
     19 N          18.6821  -27.3571  -41.1612 N.am      3 UNK        -0.4424 
     20 C          17.3549  -27.2809  -41.0460 C.2       2 UNK         0.4918 
     21 O          16.7658  -26.3820  -40.4442 O.2       2 UNK        -0.4875 
     22 CA         16.5606  -28.3831  -41.7565 C.3       2 UNK         0.0481 
     23 CB         15.1623  -28.6039  -41.1505 C.3       2 UNK        -0.1831 
     24 N          16.4412  -28.0153  -43.1602 N.am      2 UNK        -0.4498 
     25 C          16.4049  -28.8594  -44.1962 C.2       1 UNK         0.5027 
     26 O          16.4078  -30.0866  -44.0867 O.2       1 UNK        -0.4969 
     27 C          20.9328  -27.3233  -40.2546 C.2       3 UNK         0.5005 
     28 O          20.9040  -28.5453  -40.4352 O.2       3 UNK        -0.5279 
     29 N          22.0264  -26.6581  -39.8605 N.am      4 UNK        -0.4463 
     30 CA         23.3505  -27.2570  -39.6935 C.3       4 UNK         0.0283 
     31 CB         24.2653  -26.2872  -38.9210 C.3       4 UNK        -0.1875 
     32 C          23.9435  -27.6961  -41.0454 C.2       4 UNK         0.4949 
     33 O          23.8067  -28.8626  -41.4131 O.2       4 UNK        -0.5039 
     34 N          24.6062  -26.7632  -41.7480 N.am      5 UNK        -0.4663 
     35 CA         25.2564  -26.9401  -43.0582 C.3       5 UNK         0.0242 
     36 CB         24.1898  -27.0602  -44.1664 C.3       5 UNK        -0.1982 
     37 C          26.2720  -28.1037  -43.0921 C.2       5 UNK         0.5017 
     38 O          26.3611  -28.8159  -44.0935 O.2       5 UNK        -0.5012 
     39 N          26.9765  -28.3078  -41.9681 N.am      6 UNK        -0.4439 
     40 CA         27.9200  -29.3892  -41.6408 C.3       6 UNK         0.0297 
     41 CB         29.1218  -29.4035  -42.6057 C.3       6 UNK        -0.2006 
     42 C          27.2931  -30.7946  -41.5197 C.2       6 UNK         0.4892 
     43 O          27.7382  -31.5704  -40.6734 O.2       6 UNK        -0.5089 
     44 N          26.2894  -31.1053  -42.3491 N.am      7 UNK        -0.4243 
     45 CA         25.5883  -32.3909  -42.3902 C.3       7 UNK         0.0196 
     46 CB         24.8125  -32.4938  -43.7115 C.3       7 UNK        -0.2007 
     47 C          24.6458  -32.6307  -41.1971 C.2       7 UNK         0.5020 
     48 O          24.3960  -33.7911  -40.8698 O.2       7 UNK        -0.5147 
     49 N          24.1452  -31.5490  -40.5803 N.am      8 UNK        -0.4734 
     50 CA         23.1943  -31.5161  -39.4626 C.3       8 UNK         0.0238 
     51 CB         23.7965  -32.1543  -38.1921 C.3       8 UNK        -0.1912 
     52 C          21.8287  -32.1036  -39.8575 C.2       8 UNK         0.5038 
     53 O          21.3819  -33.0918  -39.2706 O.2       8 UNK        -0.5046 
     54 N          21.2009  -31.4803  -40.8622 N.am      9 UNK        -0.4200 
     55 CA         19.8477  -31.8137  -41.3347 C.3       9 UNK         0.0839 
     56 C          18.7329  -31.4676  -40.3087 C.2       9 UNK         0.5513 
     57 N          18.8995  -30.4307  -39.4966 N.am      9 UNK        -0.7519 
     58 O          17.7113  -32.1462  -40.2526 O.2       9 UNK        -0.4960 
     59 C59        19.5310  -31.1631  -42.7049 C.3       10 UNK        -0.0876 
     60 S60        20.6794  -31.6827  -44.0228 S.3       10 UNK        -0.2414 
     61 C61        21.6790  -30.1800  -44.2630 C.3       10 UNK         0.0169 
     62 H62        12.5359  -25.9683  -44.7450 H         1 UNK         0.0903 
     63 H63        13.1206  -25.1081  -46.1719 H         1 UNK         0.0903 
     64 H64        12.6288  -26.7980  -46.3003 H         1 UNK         0.0903 
     65 H65        14.3744  -28.2045  -46.3868 H         1 UNK         0.3096 
     66 H66        17.0285  -27.3667  -45.5484 H         1 UNK         0.1121 
     67 H67        17.6068  -29.7758  -46.4390 H         1 UNK         0.0849 
     68 H68        15.9706  -29.8176  -47.0212 H         1 UNK         0.0849 
     69 H69        19.3936  -29.2279  -48.6020 H         1 UNK         0.0865 
     70 H70        19.5138  -27.5042  -48.8368 H         1 UNK         0.0865 
     71 H71        20.5496  -30.0757  -46.7324 H         1 UNK         0.1346 
     72 H72        21.0449  -27.7842  -43.1615 H         1 UNK         0.1412 
     73 H73        18.9957  -26.0856  -46.5341 H         1 UNK         0.1426 
     74 H74        18.6903  -25.5537  -43.5837 H         1 UNK         0.0716 
     75 H75        19.6885  -24.6463  -44.6903 H         1 UNK         0.0716 
     76 H76        20.2983  -24.4250  -40.4689 H         1 UNK         0.0695 
     77 H77        18.8769  -24.6742  -41.4135 H         1 UNK         0.0695 
     78 H78        19.2583  -26.3069  -39.4807 H         1 UNK         0.0983 
     79 H79        19.1007  -28.1530  -41.6211 H         1 UNK         0.3095 
     80 H80        17.1241  -29.3134  -41.6666 H         1 UNK         0.0454 
     81 H81        15.2318  -28.8377  -40.0875 H         1 UNK         0.0851 
     82 H82        14.5321  -27.7196  -41.2526 H         1 UNK         0.0851 
     83 H83        14.6502  -29.4367  -41.6324 H         1 UNK         0.0851 
     84 H84        16.3581  -27.0220  -43.3549 H         1 UNK         0.2976 
     85 H85        21.9683  -25.6548  -39.7632 H         1 UNK         0.3116 
     86 H86        23.2408  -28.1537  -39.0818 H         1 UNK         0.0646 
     87 H87        23.8962  -26.1284  -37.9075 H         1 UNK         0.0847 
     88 H88        24.3381  -25.3099  -39.3990 H         1 UNK         0.0847 
     89 H89        25.2759  -26.6882  -38.8310 H         1 UNK         0.0847 
     90 H90        24.6635  -25.8333  -41.3566 H         1 UNK         0.3040 
     91 H91        25.8310  -26.0323  -43.2488 H         1 UNK         0.1015 
     92 H92        23.6284  -27.9897  -44.0794 H         1 UNK         0.0786 
     93 H93        24.6465  -27.0485  -45.1567 H         1 UNK         0.0786 
     94 H94        23.4786  -26.2351  -44.1288 H         1 UNK         0.0786 
     95 H95        26.7850  -27.6730  -41.2056 H         1 UNK         0.3172 
     96 H96        28.3051  -29.1420  -40.6501 H         1 UNK         0.0595 
     97 H97        29.8679  -30.1315  -42.2845 H         1 UNK         0.0839 
     98 H98        28.8290  -29.6711  -43.6213 H         1 UNK         0.0839 
     99 H99        29.6134  -28.4315  -42.6428 H         1 UNK         0.0839 
    100 H100       26.0217  -30.4056  -43.0346 H         1 UNK         0.2998 
    101 H101       26.3395  -33.1836  -42.3748 H         1 UNK         0.0822 
    102 H102       24.2935  -33.4502  -43.7897 H         1 UNK         0.0787 
    103 H103       24.0624  -31.7086  -43.7895 H         1 UNK         0.0787 
    104 H104       25.4769  -32.4123  -44.5720 H         1 UNK         0.0787 
    105 H105       24.3484  -30.6373  -40.9846 H         1 UNK         0.3055 
    106 H106       23.0141  -30.4644  -39.2394 H         1 UNK         0.1106 
    107 H107       24.7444  -31.6868  -37.9258 H         1 UNK         0.0828 
    108 H108       23.1240  -32.0327  -37.3422 H         1 UNK         0.0828 
    109 H109       23.9722  -33.2234  -38.3130 H         1 UNK         0.0828 
    110 H110       21.6115  -30.6366  -41.2392 H         1 UNK         0.2931 
    111 H111       19.8168  -32.8962  -41.4744 H         1 UNK         0.0412 
    112 H112       19.7217  -29.8439  -39.5938 H         1 UNK         0.3472 
    113 H113       18.1931  -30.2131  -38.8127 H         1 UNK         0.3472 
    114 H114       18.5264  -31.4406  -43.0299 H         1 UNK         0.0970 
    115 H115       19.5274  -30.0761  -42.6226 H         1 UNK         0.0970 
    116 H116       22.1158  -29.8832  -43.3085 H         1 UNK         0.0612 
    117 H117       22.5133  -30.4166  -44.9238 H         1 UNK         0.0612 
@<TRIPOS>BOND
     1    1    2 1    
     2    1   62 1    
     3    1   63 1    
     4    1   64 1    
     5    2    3 2    
     6    2    4 am   BACKBONE|DICT|INTERRES
     7    4    5 1    
     8    4   65 1    
     9    5    6 1    
    10    5   25 1    
    11    5   66 1    
    12    6    7 1    
    13    6   67 1    
    14    6   68 1    
    15    7    8 1    
    16    8    9 1    
    17    8   69 1    
    18    8   70 1    
    19    9   10 ar   
    20    9   14 ar   
    21   10   11 ar   
    22   10   71 1    
    23   11   12 ar   
    24   11   61 1    
    25   12   13 ar   
    26   12   72 1    
    27   13   14 ar   
    28   13   15 1    
    29   14   73 1    
    30   15   16 1    
    31   15   74 1    
    32   15   75 1    
    33   16   17 1    
    34   17   18 1    
    35   17   76 1    
    36   17   77 1    
    37   18   19 1    
    38   18   27 1    
    39   18   78 1    
    40   19   20 am   BACKBONE|DICT|INTERRES
    41   19   79 1    
    42   20   21 2    
    43   20   22 1    
    44   22   23 1    
    45   22   24 1    
    46   22   80 1    
    47   23   81 1    
    48   23   82 1    
    49   23   83 1    
    50   24   25 am   BACKBONE|DICT|INTERRES
    51   24   84 1    
    52   25   26 2    
    53   27   28 2    
    54   27   29 am   BACKBONE|DICT|INTERRES
    55   29   30 1    
    56   29   85 1    
    57   30   31 1    
    58   30   32 1    
    59   30   86 1    
    60   31   87 1    
    61   31   88 1    
    62   31   89 1    
    63   32   33 2    
    64   32   34 am   BACKBONE|DICT|INTERRES
    65   34   35 1    
    66   34   90 1    
    67   35   36 1    
    68   35   37 1    
    69   35   91 1    
    70   36   92 1    
    71   36   93 1    
    72   36   94 1    
    73   37   38 2    
    74   37   39 am   BACKBONE|DICT|INTERRES
    75   39   40 1    
    76   39   95 1    
    77   40   41 1    
    78   40   42 1    
    79   40   96 1    
    80   41   97 1    
    81   41   98 1    
    82   41   99 1    
    83   42   43 2    
    84   42   44 am   BACKBONE|DICT|INTERRES
    85   44   45 1    
    86   44  100 1    
    87   45   46 1    
    88   45   47 1    
    89   45  101 1    
    90   46  102 1    
    91   46  103 1    
    92   46  104 1    
    93   47   48 2    
    94   47   49 am   BACKBONE|DICT|INTERRES
    95   49   50 1    
    96   49  105 1    
    97   50   51 1    
    98   50   52 1    
    99   50  106 1    
   100   51  107 1    
   101   51  108 1    
   102   51  109 1    
   103   52   53 2    
   104   52   54 am   BACKBONE|DICT|INTERRES
   105   54   55 1    
   106   54  110 1    
   107   55   56 1    
   108   55   59 1    
   109   55  111 1    
   110   56   57 am   BACKBONE|DICT|INTERRES
   111   56   58 2    
   112   57  112 1    
   113   57  113 1    
   114   59   60 1    
   115   59  114 1    
   116   59  115 1    
   117   60   61 1    
   118   61  116 1    
   119   61  117 1    
@<TRIPOS>SUBSTRUCTURE
     1 UNK         1 GROUP             0       ****    0 ROOT    
