@<TRIPOS>MOLECULE
3R8
117   119    1
SMALL
USER_CHARGES


@<TRIPOS>ATOM
      1 CA         14.5049  -23.4542  -41.9834 C.3       0 UNK        -0.2013 
      2 C          14.9630  -24.8005  -42.5255 C.2       0 UNK         0.4866 
      3 O          14.3394  -25.8167  -42.2200 O.2       0 UNK        -0.5176 
      4 N          16.0326  -24.7960  -43.3350 N.am      1 UNK        -0.4884 
      5 CA         16.7213  -25.9506  -43.9288 C.3       1 UNK         0.0853 
      6 C6         15.7772  -26.9355  -44.6739 C.3       10 UNK        -0.0849 
      7 S7         16.5863  -27.7595  -46.0878 S.3       10 UNK        -0.2776 
      8 C8         16.3661  -29.5246  -45.6902 C.3       10 UNK         0.0316 
      9 C9         17.4498  -30.0269  -44.7489 C.ar      10 UNK        -0.0863 
     10 C10        17.2149  -30.1186  -43.3749 C.ar      10 UNK        -0.1009 
     11 C11        18.2149  -30.5617  -42.5037 C.ar      10 UNK        -0.0712 
     12 C12        19.4690  -30.9018  -43.0304 C.ar      10 UNK        -0.0894 
     13 C13        19.7048  -30.8600  -44.4071 C.ar      10 UNK        -0.0745 
     14 C14        18.6885  -30.4193  -45.2602 C.ar      10 UNK        -0.0972 
     15 C15        21.0276  -31.3683  -44.9689 C.3       10 UNK         0.0209 
     16 S16        21.7497  -30.2800  -46.2388 S.3       10 UNK        -0.2568 
     17 C17        22.8676  -29.2155  -45.2733 C.3       10 UNK        -0.0983 
     18 CA         22.3794  -27.7414  -45.2341 C.3       3 UNK         0.0876 
     19 N          21.2253  -27.5457  -44.3391 N.am      3 UNK        -0.4424 
     20 C          21.2490  -27.5630  -42.9951 C.2       2 UNK         0.4918 
     21 O          22.2659  -27.7868  -42.3372 O.2       2 UNK        -0.4875 
     22 CA         19.9446  -27.2407  -42.2445 C.3       2 UNK         0.0481 
     23 CB         20.2016  -26.3705  -40.9964 C.3       2 UNK        -0.1831 
     24 N          18.9374  -26.6101  -43.1051 N.am      2 UNK        -0.4498 
     25 C          17.6159  -26.6526  -42.8850 C.2       1 UNK         0.5027 
     26 O          17.1058  -27.2007  -41.9059 O.2       1 UNK        -0.4969 
     27 C          23.5220  -26.7486  -44.9157 C.2       3 UNK         0.5005 
     28 O          24.6380  -27.1669  -44.6063 O.2       3 UNK        -0.5279 
     29 N          23.2033  -25.4437  -44.9310 N.am      4 UNK        -0.4463 
     30 CA         24.0986  -24.3253  -44.5872 C.3       4 UNK         0.0283 
     31 CB         25.1982  -24.1558  -45.6577 C.3       4 UNK        -0.1875 
     32 C          24.6696  -24.4268  -43.1553 C.2       4 UNK         0.4949 
     33 O          25.8345  -24.0995  -42.9258 O.2       4 UNK        -0.5039 
     34 N          23.8224  -24.8995  -42.2296 N.am      5 UNK        -0.4663 
     35 CA         24.0890  -25.1661  -40.8112 C.3       5 UNK         0.0242 
     36 CB         24.5067  -23.8812  -40.0634 C.3       5 UNK        -0.1982 
     37 C          25.0440  -26.3495  -40.5501 C.2       5 UNK         0.5017 
     38 O          25.5722  -26.4542  -39.4417 O.2       5 UNK        -0.5012 
     39 N          25.2214  -27.2473  -41.5332 N.am      6 UNK        -0.4439 
     40 CA         25.9210  -28.5256  -41.3543 C.3       6 UNK         0.0297 
     41 CB         26.2612  -29.1363  -42.7223 C.3       6 UNK        -0.2006 
     42 C          25.1106  -29.5290  -40.5129 C.2       6 UNK         0.4892 
     43 O          25.7124  -30.3584  -39.8302 O.2       6 UNK        -0.5089 
     44 N          23.7726  -29.4267  -40.5763 N.am      7 UNK        -0.4243 
     45 CA         22.7779  -30.2102  -39.8349 C.3       7 UNK         0.0196 
     46 CB         22.8458  -29.8933  -38.3265 C.3       7 UNK        -0.2007 
     47 C          22.8248  -31.7211  -40.1345 C.2       7 UNK         0.5020 
     48 O          22.5213  -32.5351  -39.2607 O.2       7 UNK        -0.5147 
     49 N          23.1568  -32.0822  -41.3815 N.am      8 UNK        -0.4734 
     50 CA         23.1682  -33.4592  -41.8925 C.3       8 UNK         0.0238 
     51 CB         24.1561  -33.5390  -43.0723 C.3       8 UNK        -0.1912 
     52 C          21.7495  -33.9389  -42.2688 C.2       8 UNK         0.5038 
     53 O          21.5243  -34.3791  -43.3974 O.2       8 UNK        -0.5046 
     54 N          20.8082  -33.7775  -41.3333 N.am      9 UNK        -0.4200 
     55 CA         19.3687  -34.0054  -41.5100 C.3       9 UNK         0.0839 
     56 C          19.0042  -35.5066  -41.6597 C.2       9 UNK         0.5513 
     57 N          17.9130  -35.8105  -42.3531 N.am      9 UNK        -0.7519 
     58 O          19.6706  -36.3909  -41.1204 O.2       9 UNK        -0.4960 
     59 C59        18.5370  -33.3368  -40.3795 C.3       10 UNK        -0.0876 
     60 S60        19.0343  -31.6187  -39.9862 S.3       10 UNK        -0.2414 
     61 C61        17.8985  -30.6173  -41.0069 C.3       10 UNK         0.0169 
     62 H62        14.5394  -23.4577  -40.8942 H         1 UNK         0.0903 
     63 H63        15.1288  -22.6343  -42.3391 H         1 UNK         0.0903 
     64 H64        13.4784  -23.2558  -42.2907 H         1 UNK         0.0903 
     65 H65        16.4778  -23.9075  -43.5225 H         1 UNK         0.3096 
     66 H66        17.3764  -25.5042  -44.6791 H         1 UNK         0.1121 
     67 H67        15.3460  -27.6686  -43.9896 H         1 UNK         0.0849 
     68 H68        14.9268  -26.3904  -45.0863 H         1 UNK         0.0849 
     69 H69        15.3733  -29.6968  -45.2713 H         1 UNK         0.0865 
     70 H70        16.4004  -30.0975  -46.6182 H         1 UNK         0.0865 
     71 H71        16.2532  -29.8250  -42.9762 H         1 UNK         0.1346 
     72 H72        20.2618  -31.2297  -42.3756 H         1 UNK         0.1412 
     73 H73        18.8607  -30.3827  -46.3273 H         1 UNK         0.1426 
     74 H74        20.8466  -32.3451  -45.4192 H         1 UNK         0.0716 
     75 H75        21.7540  -31.5357  -44.1738 H         1 UNK         0.0716 
     76 H76        23.8393  -29.2930  -45.7647 H         1 UNK         0.0695 
     77 H77        23.0109  -29.6099  -44.2667 H         1 UNK         0.0695 
     78 H78        22.0460  -27.4758  -46.2390 H         1 UNK         0.0983 
     79 H79        20.3348  -27.4433  -44.8019 H         1 UNK         0.3095 
     80 H80        19.5595  -28.2021  -41.9057 H         1 UNK         0.0454 
     81 H81        20.9129  -26.8466  -40.3203 H         1 UNK         0.0851 
     82 H82        19.2867  -26.2116  -40.4259 H         1 UNK         0.0851 
     83 H83        20.6020  -25.3924  -41.2632 H         1 UNK         0.0851 
     84 H84        19.2852  -26.0930  -43.8995 H         1 UNK         0.2976 
     85 H85        22.2576  -25.1877  -45.1804 H         1 UNK         0.3116 
     86 H86        23.4848  -23.4235  -44.6029 H         1 UNK         0.0646 
     87 H87        25.8913  -24.9977  -45.6636 H         1 UNK         0.0847 
     88 H88        24.7709  -24.0659  -46.6562 H         1 UNK         0.0847 
     89 H89        25.7853  -23.2547  -45.4763 H         1 UNK         0.0847 
     90 H90        22.9032  -25.1685  -42.5494 H         1 UNK         0.3040 
     91 H91        23.1334  -25.4817  -40.3903 H         1 UNK         0.1015 
     92 H92        24.5240  -24.0438  -38.9850 H         1 UNK         0.0786 
     93 H93        23.8088  -23.0658  -40.2534 H         1 UNK         0.0786 
     94 H94        25.5028  -23.5468  -40.3541 H         1 UNK         0.0786 
     95 H95        24.7736  -27.0917  -42.4304 H         1 UNK         0.3172 
     96 H96        26.8590  -28.3304  -40.8302 H         1 UNK         0.0595 
     97 H97        25.3633  -29.3924  -43.2853 H         1 UNK         0.0839 
     98 H98        26.8437  -30.0513  -42.6066 H         1 UNK         0.0839 
     99 H99        26.8519  -28.4495  -43.3287 H         1 UNK         0.0839 
    100 H100       23.3814  -28.7267  -41.2045 H         1 UNK         0.2998 
    101 H101       21.8052  -29.8695  -40.1937 H         1 UNK         0.0822 
    102 H102       22.0167  -30.3582  -37.7915 H         1 UNK         0.0787 
    103 H103       22.7862  -28.8202  -38.1444 H         1 UNK         0.0787 
    104 H104       23.7697  -30.2596  -37.8778 H         1 UNK         0.0787 
    105 H105       23.3839  -31.3517  -42.0398 H         1 UNK         0.3055 
    106 H106       23.5322  -34.1268  -41.1079 H         1 UNK         0.1106 
    107 H107       25.1585  -33.2345  -42.7709 H         1 UNK         0.0828 
    108 H108       24.2309  -34.5594  -43.4508 H         1 UNK         0.0828 
    109 H109       23.8488  -32.9048  -43.9045 H         1 UNK         0.0828 
    110 H110       21.0960  -33.4167  -40.4306 H         1 UNK         0.2931 
    111 H111       19.0918  -33.5249  -42.4493 H         1 UNK         0.0412 
    112 H112       17.6480  -36.7787  -42.4496 H         1 UNK         0.3472 
    113 H113       17.3538  -35.0930  -42.7921 H         1 UNK         0.3472 
    114 H114       18.6322  -33.9131  -39.4571 H         1 UNK         0.0970 
    115 H115       17.4750  -33.3531  -40.6304 H         1 UNK         0.0970 
    116 H116       17.9160  -29.5970  -40.6221 H         1 UNK         0.0612 
    117 H117       16.8814  -30.9821  -40.8565 H         1 UNK         0.0612 
@<TRIPOS>BOND
     1    1    2 1    
     2    1   62 1    
     3    1   63 1    
     4    1   64 1    
     5    2    3 2    
     6    2    4 am   BACKBONE|DICT|INTERRES
     7    4    5 1    
     8    4   65 1    
     9    5    6 1    
    10    5   25 1    
    11    5   66 1    
    12    6    7 1    
    13    6   67 1    
    14    6   68 1    
    15    7    8 1    
    16    8    9 1    
    17    8   69 1    
    18    8   70 1    
    19    9   10 ar   
    20    9   14 ar   
    21   10   11 ar   
    22   10   71 1    
    23   11   12 ar   
    24   11   61 1    
    25   12   13 ar   
    26   12   72 1    
    27   13   14 ar   
    28   13   15 1    
    29   14   73 1    
    30   15   16 1    
    31   15   74 1    
    32   15   75 1    
    33   16   17 1    
    34   17   18 1    
    35   17   76 1    
    36   17   77 1    
    37   18   19 1    
    38   18   27 1    
    39   18   78 1    
    40   19   20 am   BACKBONE|DICT|INTERRES
    41   19   79 1    
    42   20   21 2    
    43   20   22 1    
    44   22   23 1    
    45   22   24 1    
    46   22   80 1    
    47   23   81 1    
    48   23   82 1    
    49   23   83 1    
    50   24   25 am   BACKBONE|DICT|INTERRES
    51   24   84 1    
    52   25   26 2    
    53   27   28 2    
    54   27   29 am   BACKBONE|DICT|INTERRES
    55   29   30 1    
    56   29   85 1    
    57   30   31 1    
    58   30   32 1    
    59   30   86 1    
    60   31   87 1    
    61   31   88 1    
    62   31   89 1    
    63   32   33 2    
    64   32   34 am   BACKBONE|DICT|INTERRES
    65   34   35 1    
    66   34   90 1    
    67   35   36 1    
    68   35   37 1    
    69   35   91 1    
    70   36   92 1    
    71   36   93 1    
    72   36   94 1    
    73   37   38 2    
    74   37   39 am   BACKBONE|DICT|INTERRES
    75   39   40 1    
    76   39   95 1    
    77   40   41 1    
    78   40   42 1    
    79   40   96 1    
    80   41   97 1    
    81   41   98 1    
    82   41   99 1    
    83   42   43 2    
    84   42   44 am   BACKBONE|DICT|INTERRES
    85   44   45 1    
    86   44  100 1    
    87   45   46 1    
    88   45   47 1    
    89   45  101 1    
    90   46  102 1    
    91   46  103 1    
    92   46  104 1    
    93   47   48 2    
    94   47   49 am   BACKBONE|DICT|INTERRES
    95   49   50 1    
    96   49  105 1    
    97   50   51 1    
    98   50   52 1    
    99   50  106 1    
   100   51  107 1    
   101   51  108 1    
   102   51  109 1    
   103   52   53 2    
   104   52   54 am   BACKBONE|DICT|INTERRES
   105   54   55 1    
   106   54  110 1    
   107   55   56 1    
   108   55   59 1    
   109   55  111 1    
   110   56   57 am   BACKBONE|DICT|INTERRES
   111   56   58 2    
   112   57  112 1    
   113   57  113 1    
   114   59   60 1    
   115   59  114 1    
   116   59  115 1    
   117   60   61 1    
   118   61  116 1    
   119   61  117 1    
@<TRIPOS>SUBSTRUCTURE
     1 UNK         1 GROUP             0       ****    0 ROOT    
