@<TRIPOS>MOLECULE
3R8
117   119    1
SMALL
USER_CHARGES


@<TRIPOS>ATOM
      1 CA         14.4690  -23.5223  -41.7635 C.3       0 UNK        -0.2013 
      2 C          14.9281  -24.4136  -42.9077 C.2       0 UNK         0.4866 
      3 O          14.5051  -24.2136  -44.0464 O.2       0 UNK        -0.5176 
      4 N          15.7883  -25.3978  -42.6136 N.am      1 UNK        -0.4884 
      5 CA         16.3366  -26.3505  -43.5877 C.3       1 UNK         0.0853 
      6 C6         17.0250  -27.5503  -42.8890 C.3       10 UNK        -0.0849 
      7 S7         15.8284  -28.7718  -42.2477 S.3       10 UNK        -0.2776 
      8 C8         15.3256  -29.6900  -43.7497 C.3       10 UNK         0.0316 
      9 C9         16.5151  -30.1421  -44.5863 C.ar      10 UNK        -0.0863 
     10 C10        17.3037  -31.2172  -44.1718 C.ar      10 UNK        -0.1009 
     11 C11        18.4501  -31.5714  -44.8895 C.ar      10 UNK        -0.0712 
     12 C12        18.7788  -30.8727  -46.0556 C.ar      10 UNK        -0.0894 
     13 C13        18.0103  -29.7776  -46.4686 C.ar      10 UNK        -0.0745 
     14 C14        16.8643  -29.4398  -45.7432 C.ar      10 UNK        -0.0972 
     15 C15        18.4134  -28.9116  -47.6624 C.3       10 UNK         0.0209 
     16 S16        20.2035  -28.5474  -47.8208 S.3       10 UNK        -0.2568 
     17 C17        20.8223  -28.3317  -46.1156 C.3       10 UNK        -0.0983 
     18 CA         21.3345  -26.9032  -45.8020 C.3       3 UNK         0.0876 
     19 N          20.2297  -25.9689  -45.5569 N.am      3 UNK        -0.4424 
     20 C          20.3374  -24.6629  -45.2741 C.2       2 UNK         0.4918 
     21 O          21.4077  -24.0548  -45.2627 O.2       2 UNK        -0.4875 
     22 CA         19.0480  -23.8891  -44.9216 C.3       2 UNK         0.0481 
     23 CB         18.4468  -23.2243  -46.1753 C.3       2 UNK        -0.1831 
     24 N          18.0331  -24.6545  -44.1758 N.am      2 UNK        -0.4498 
     25 C          17.3054  -25.7004  -44.5957 C.2       1 UNK         0.5027 
     26 O          17.4047  -26.1857  -45.7215 O.2       1 UNK        -0.4969 
     27 C          22.3079  -26.9700  -44.6078 C.2       3 UNK         0.5005 
     28 O          23.5127  -26.7848  -44.7913 O.2       3 UNK        -0.5279 
     29 N          21.7611  -27.2719  -43.4186 N.am      4 UNK        -0.4463 
     30 CA         22.4258  -27.5254  -42.1307 C.3       4 UNK         0.0283 
     31 CB         23.1806  -26.2816  -41.6241 C.3       4 UNK        -0.1875 
     32 C          23.3336  -28.7704  -42.1152 C.2       4 UNK         0.4949 
     33 O          23.1867  -29.6025  -41.2201 O.2       4 UNK        -0.5039 
     34 N          24.2475  -28.8712  -43.0908 N.am      5 UNK        -0.4663 
     35 CA         25.2167  -29.9522  -43.3148 C.3       5 UNK         0.0242 
     36 CB         24.4881  -31.2355  -43.7648 C.3       5 UNK        -0.1982 
     37 C          26.1365  -30.1829  -42.1013 C.2       5 UNK         0.5017 
     38 O          26.2936  -31.3180  -41.6533 O.2       5 UNK        -0.5012 
     39 N          26.6829  -29.0859  -41.5532 N.am      6 UNK        -0.4439 
     40 CA         27.4746  -29.0323  -40.3132 C.3       6 UNK         0.0297 
     41 CB         28.8379  -29.7337  -40.4958 C.3       6 UNK        -0.2006 
     42 C          26.6890  -29.5501  -39.0880 C.2       6 UNK         0.4892 
     43 O          27.2494  -30.2400  -38.2354 O.2       6 UNK        -0.5089 
     44 N          25.3924  -29.2098  -39.0565 N.am      7 UNK        -0.4243 
     45 CA         24.3611  -29.5969  -38.0883 C.3       7 UNK         0.0196 
     46 CB         24.7514  -29.2089  -36.6460 C.3       7 UNK        -0.2007 
     47 C          23.8926  -31.0613  -38.1974 C.2       7 UNK         0.5020 
     48 O          23.0878  -31.4827  -37.3654 O.2       7 UNK        -0.5147 
     49 N          24.3311  -31.8103  -39.2225 N.am      8 UNK        -0.4734 
     50 CA         23.8812  -33.1858  -39.4766 C.3       8 UNK         0.0238 
     51 CB         24.7817  -33.8561  -40.5250 C.3       8 UNK        -0.1912 
     52 C          22.4039  -33.2769  -39.8990 C.2       8 UNK         0.5038 
     53 O          21.7703  -34.2969  -39.6242 O.2       8 UNK        -0.5046 
     54 N          21.8770  -32.2147  -40.5237 N.am      9 UNK        -0.4200 
     55 CA         20.4445  -32.0560  -40.8207 C.3       9 UNK         0.0839 
     56 C          19.6092  -31.5382  -39.6112 C.2       9 UNK         0.5513 
     57 N          20.1932  -31.2583  -38.4508 N.am      9 UNK        -0.7519 
     58 O          18.3940  -31.4019  -39.7224 O.2       9 UNK        -0.4960 
     59 C59        20.2084  -31.1936  -42.0878 C.3       10 UNK        -0.0876 
     60 S60        20.8705  -31.9742  -43.6015 S.3       10 UNK        -0.2414 
     61 C61        19.3696  -32.6679  -44.3731 C.3       10 UNK         0.0169 
     62 H62        13.3857  -23.5761  -41.6580 H         1 UNK         0.0903 
     63 H63        14.9166  -23.8134  -40.8135 H         1 UNK         0.0903 
     64 H64        14.7407  -22.4860  -41.9630 H         1 UNK         0.0903 
     65 H65        16.0771  -25.5333  -41.6546 H         1 UNK         0.3096 
     66 H66        15.5031  -26.7259  -44.1853 H         1 UNK         0.1121 
     67 H67        17.7289  -28.0636  -43.5452 H         1 UNK         0.0849 
     68 H68        17.6357  -27.2026  -42.0539 H         1 UNK         0.0849 
     69 H69        14.7391  -30.5604  -43.4520 H         1 UNK         0.0865 
     70 H70        14.6554  -29.0665  -44.3432 H         1 UNK         0.0865 
     71 H71        17.0503  -31.7447  -43.2620 H         1 UNK         0.1346 
     72 H72        19.6730  -31.1395  -46.6019 H         1 UNK         0.1412 
     73 H73        16.2675  -28.5929  -46.0535 H         1 UNK         0.1426 
     74 H74        17.8883  -27.9564  -47.6289 H         1 UNK         0.0716 
     75 H75        18.0800  -29.4052  -48.5758 H         1 UNK         0.0716 
     76 H76        21.6234  -29.0668  -46.0063 H         1 UNK         0.0695 
     77 H77        20.0682  -28.6156  -45.3825 H         1 UNK         0.0695 
     78 H78        21.9010  -26.5317  -46.6586 H         1 UNK         0.0983 
     79 H79        19.2891  -26.3436  -45.6358 H         1 UNK         0.3095 
     80 H80        19.3496  -23.0866  -44.2465 H         1 UNK         0.0454 
     81 H81        19.1707  -22.5576  -46.6455 H         1 UNK         0.0851 
     82 H82        17.5705  -22.6262  -45.9256 H         1 UNK         0.0851 
     83 H83        18.1500  -23.9565  -46.9266 H         1 UNK         0.0851 
     84 H84        17.8849  -24.3522  -43.2227 H         1 UNK         0.2976 
     85 H85        20.7609  -27.4105  -43.4074 H         1 UNK         0.3116 
     86 H86        21.6201  -27.7233  -41.4216 H         1 UNK         0.0646 
     87 H87        24.0148  -26.0124  -42.2724 H         1 UNK         0.0847 
     88 H88        22.5187  -25.4181  -41.5591 H         1 UNK         0.0847 
     89 H89        23.5873  -26.4521  -40.6265 H         1 UNK         0.0847 
     90 H90        24.2491  -28.1185  -43.7782 H         1 UNK         0.3040 
     91 H91        25.8629  -29.6333  -44.1342 H         1 UNK         0.1015 
     92 H92        25.1986  -32.0210  -44.0248 H         1 UNK         0.0786 
     93 H93        23.8697  -31.0531  -44.6437 H         1 UNK         0.0786 
     94 H94        23.8417  -31.6278  -42.9795 H         1 UNK         0.0786 
     95 H95        26.4875  -28.1965  -41.9928 H         1 UNK         0.3172 
     96 H96        27.6726  -27.9767  -40.1210 H         1 UNK         0.0595 
     97 H97        28.7265  -30.8100  -40.6313 H         1 UNK         0.0839 
     98 H98        29.4745  -29.5823  -39.6232 H         1 UNK         0.0839 
     99 H99        29.3748  -29.3406  -41.3589 H         1 UNK         0.0839 
    100 H100       25.0408  -28.6940  -39.8508 H         1 UNK         0.2998 
    101 H101       23.4867  -29.0004  -38.3536 H         1 UNK         0.0822 
    102 H102       23.9063  -29.3303  -35.9673 H         1 UNK         0.0787 
    103 H103       25.0659  -28.1671  -36.5852 H         1 UNK         0.0787 
    104 H104       25.5616  -29.8292  -36.2622 H         1 UNK         0.0787 
    105 H105       24.9732  -31.4063  -39.8950 H         1 UNK         0.3055 
    106 H106       23.9835  -33.7426  -38.5423 H         1 UNK         0.1106 
    107 H107       25.8335  -33.7992  -40.2441 H         1 UNK         0.0828 
    108 H108       24.5309  -34.9120  -40.6335 H         1 UNK         0.0828 
    109 H109       24.6698  -33.3965  -41.5069 H         1 UNK         0.0828 
    110 H110       22.4629  -31.4058  -40.7071 H         1 UNK         0.2931 
    111 H111       20.0363  -33.0448  -41.0389 H         1 UNK         0.0412 
    112 H112       19.6239  -30.9328  -37.6857 H         1 UNK         0.3472 
    113 H113       21.1855  -31.3984  -38.3107 H         1 UNK         0.3472 
    114 H114       20.6719  -30.2142  -41.9719 H         1 UNK         0.0970 
    115 H115       19.1466  -30.9933  -42.2250 H         1 UNK         0.0970 
    116 H116       18.8536  -33.3050  -43.6531 H         1 UNK         0.0612 
    117 H117       19.6644  -33.3137  -45.2013 H         1 UNK         0.0612 
@<TRIPOS>BOND
     1    1    2 1    
     2    1   62 1    
     3    1   63 1    
     4    1   64 1    
     5    2    3 2    
     6    2    4 am   BACKBONE|DICT|INTERRES
     7    4    5 1    
     8    4   65 1    
     9    5    6 1    
    10    5   25 1    
    11    5   66 1    
    12    6    7 1    
    13    6   67 1    
    14    6   68 1    
    15    7    8 1    
    16    8    9 1    
    17    8   69 1    
    18    8   70 1    
    19    9   10 ar   
    20    9   14 ar   
    21   10   11 ar   
    22   10   71 1    
    23   11   12 ar   
    24   11   61 1    
    25   12   13 ar   
    26   12   72 1    
    27   13   14 ar   
    28   13   15 1    
    29   14   73 1    
    30   15   16 1    
    31   15   74 1    
    32   15   75 1    
    33   16   17 1    
    34   17   18 1    
    35   17   76 1    
    36   17   77 1    
    37   18   19 1    
    38   18   27 1    
    39   18   78 1    
    40   19   20 am   BACKBONE|DICT|INTERRES
    41   19   79 1    
    42   20   21 2    
    43   20   22 1    
    44   22   23 1    
    45   22   24 1    
    46   22   80 1    
    47   23   81 1    
    48   23   82 1    
    49   23   83 1    
    50   24   25 am   BACKBONE|DICT|INTERRES
    51   24   84 1    
    52   25   26 2    
    53   27   28 2    
    54   27   29 am   BACKBONE|DICT|INTERRES
    55   29   30 1    
    56   29   85 1    
    57   30   31 1    
    58   30   32 1    
    59   30   86 1    
    60   31   87 1    
    61   31   88 1    
    62   31   89 1    
    63   32   33 2    
    64   32   34 am   BACKBONE|DICT|INTERRES
    65   34   35 1    
    66   34   90 1    
    67   35   36 1    
    68   35   37 1    
    69   35   91 1    
    70   36   92 1    
    71   36   93 1    
    72   36   94 1    
    73   37   38 2    
    74   37   39 am   BACKBONE|DICT|INTERRES
    75   39   40 1    
    76   39   95 1    
    77   40   41 1    
    78   40   42 1    
    79   40   96 1    
    80   41   97 1    
    81   41   98 1    
    82   41   99 1    
    83   42   43 2    
    84   42   44 am   BACKBONE|DICT|INTERRES
    85   44   45 1    
    86   44  100 1    
    87   45   46 1    
    88   45   47 1    
    89   45  101 1    
    90   46  102 1    
    91   46  103 1    
    92   46  104 1    
    93   47   48 2    
    94   47   49 am   BACKBONE|DICT|INTERRES
    95   49   50 1    
    96   49  105 1    
    97   50   51 1    
    98   50   52 1    
    99   50  106 1    
   100   51  107 1    
   101   51  108 1    
   102   51  109 1    
   103   52   53 2    
   104   52   54 am   BACKBONE|DICT|INTERRES
   105   54   55 1    
   106   54  110 1    
   107   55   56 1    
   108   55   59 1    
   109   55  111 1    
   110   56   57 am   BACKBONE|DICT|INTERRES
   111   56   58 2    
   112   57  112 1    
   113   57  113 1    
   114   59   60 1    
   115   59  114 1    
   116   59  115 1    
   117   60   61 1    
   118   61  116 1    
   119   61  117 1    
@<TRIPOS>SUBSTRUCTURE
     1 UNK         1 GROUP             0       ****    0 ROOT    
