@<TRIPOS>MOLECULE
3R8
117   119    1
SMALL
USER_CHARGES


@<TRIPOS>ATOM
      1 CA         16.2211  -21.4941  -42.6187 C.3       0 UNK        -0.2013 
      2 C          16.4062  -22.6243  -43.6203 C.2       0 UNK         0.4866 
      3 O          15.9424  -22.5181  -44.7564 O.2       0 UNK        -0.5176 
      4 N          17.0712  -23.7097  -43.2063 N.am      1 UNK        -0.4884 
      5 CA         17.3841  -24.8701  -44.0466 C.3       1 UNK         0.0853 
      6 C6         17.8491  -26.0816  -43.2006 C.3       10 UNK        -0.0849 
      7 S7         16.5331  -26.7292  -42.1139 S.3       10 UNK        -0.2776 
      8 C8         15.6053  -27.8348  -43.2326 C.3       10 UNK         0.0316 
      9 C9         16.4561  -28.9885  -43.7456 C.ar      10 UNK        -0.0863 
     10 C10        16.7714  -30.0569  -42.9019 C.ar      10 UNK        -0.1009 
     11 C11        17.5803  -31.1020  -43.3563 C.ar      10 UNK        -0.0712 
     12 C12        18.0569  -31.0859  -44.6698 C.ar      10 UNK        -0.0894 
     13 C13        17.7769  -30.0057  -45.5134 C.ar      10 UNK        -0.0745 
     14 C14        16.9530  -28.9738  -45.0530 C.ar      10 UNK        -0.0972 
     15 C15        18.4042  -29.9139  -46.9013 C.3       10 UNK         0.0209 
     16 S16        20.2118  -30.2138  -46.9326 S.3       10 UNK        -0.2568 
     17 C17        20.8620  -29.2949  -45.4903 C.3       10 UNK        -0.0983 
     18 CA         21.4130  -27.8915  -45.8374 C.3       3 UNK         0.0876 
     19 N          20.3607  -27.0170  -46.3522 N.am      3 UNK        -0.4424 
     20 C          20.5623  -25.9081  -47.0742 C.2       2 UNK         0.4918 
     21 O          21.6630  -25.5507  -47.4949 O.2       2 UNK        -0.4875 
     22 CA         19.3194  -25.0482  -47.3708 C.3       2 UNK         0.0481 
     23 CB         18.6758  -25.4784  -48.6987 C.3       2 UNK        -0.1831 
     24 N          18.3205  -25.1181  -46.2984 N.am      2 UNK        -0.4498 
     25 C          18.4541  -24.5249  -45.1024 C.2       1 UNK         0.5027 
     26 O          19.3871  -23.7731  -44.8079 O.2       1 UNK        -0.4969 
     27 C          22.0352  -27.2638  -44.5749 C.2       3 UNK         0.5005 
     28 O          21.3452  -26.5533  -43.8373 O.2       3 UNK        -0.5279 
     29 N          23.3021  -27.5999  -44.2967 N.am      4 UNK        -0.4463 
     30 CA         24.0235  -27.2294  -43.0738 C.3       4 UNK         0.0283 
     31 CB         25.5383  -27.3185  -43.3399 C.3       4 UNK        -0.1875 
     32 C          23.5877  -28.1022  -41.8795 C.2       4 UNK         0.4949 
     33 O          24.4029  -28.8504  -41.3369 O.2       4 UNK        -0.5039 
     34 N          22.2955  -28.0279  -41.5353 N.am      5 UNK        -0.4663 
     35 CA         21.6095  -28.8028  -40.4986 C.3       5 UNK         0.0242 
     36 CB         20.1161  -28.4271  -40.5091 C.3       5 UNK        -0.1982 
     37 C          22.2424  -28.6014  -39.1101 C.2       5 UNK         0.5017 
     38 O          21.9647  -27.5913  -38.4615 O.2       5 UNK        -0.5012 
     39 N          23.1042  -29.5521  -38.7279 N.am      6 UNK        -0.4439 
     40 CA         23.9904  -29.6200  -37.5589 C.3       6 UNK         0.0297 
     41 CB         24.4912  -28.2465  -37.0566 C.3       6 UNK        -0.2006 
     42 C          25.2016  -30.4776  -37.9473 C.2       6 UNK         0.4892 
     43 O          25.5474  -31.4076  -37.2184 O.2       6 UNK        -0.5089 
     44 N          25.8015  -30.1599  -39.1040 N.am      7 UNK        -0.4243 
     45 CA         26.8247  -30.9718  -39.7636 C.3       7 UNK         0.0196 
     46 CB         27.7558  -30.0634  -40.5840 C.3       7 UNK        -0.2007 
     47 C          26.1487  -32.0210  -40.6570 C.2       7 UNK         0.5020 
     48 O          26.5050  -33.1981  -40.6009 O.2       7 UNK        -0.5147 
     49 N          25.1517  -31.5721  -41.4290 N.am      8 UNK        -0.4734 
     50 CA         24.1742  -32.4144  -42.1120 C.3       8 UNK         0.0238 
     51 CB         23.6461  -31.6523  -43.3418 C.3       8 UNK        -0.1912 
     52 C          23.0195  -32.7598  -41.1552 C.2       8 UNK         0.5038 
     53 O          22.9041  -32.1555  -40.0831 O.2       8 UNK        -0.5046 
     54 N          22.1592  -33.6829  -41.6017 N.am      9 UNK        -0.4200 
     55 CA         20.9571  -34.1764  -40.9054 C.3       9 UNK         0.0839 
     56 C          21.2920  -35.1561  -39.7408 C.2       9 UNK         0.5513 
     57 N          20.2984  -35.5920  -38.9770 N.am      9 UNK        -0.7519 
     58 O          22.4350  -35.5625  -39.5393 O.2       9 UNK        -0.4960 
     59 C59        19.9540  -33.0553  -40.4864 C.3       10 UNK        -0.0876 
     60 S60        19.6730  -31.7924  -41.7723 S.3       10 UNK        -0.2414 
     61 C61        18.0207  -32.1983  -42.4026 C.3       10 UNK         0.0169 
     62 H62        16.6674  -21.7281  -41.6523 H         1 UNK         0.0903 
     63 H63        16.6837  -20.5815  -42.9937 H         1 UNK         0.0903 
     64 H64        15.1601  -21.2999  -42.4637 H         1 UNK         0.0903 
     65 H65        17.4382  -23.7420  -42.2659 H         1 UNK         0.3096 
     66 H66        16.4698  -25.1466  -44.5762 H         1 UNK         0.1121 
     67 H67        18.2230  -26.8902  -43.8287 H         1 UNK         0.0849 
     68 H68        18.6970  -25.7995  -42.5728 H         1 UNK         0.0849 
     69 H69        14.7446  -28.2354  -42.6950 H         1 UNK         0.0865 
     70 H70        15.1969  -27.2550  -44.0614 H         1 UNK         0.0865 
     71 H71        16.4174  -30.0543  -41.8799 H         1 UNK         0.1346 
     72 H72        18.7070  -31.8798  -45.0116 H         1 UNK         0.1412 
     73 H73        16.7219  -28.1410  -45.7022 H         1 UNK         0.1426 
     74 H74        18.2171  -28.9340  -47.3427 H         1 UNK         0.0716 
     75 H75        17.9184  -30.6393  -47.5549 H         1 UNK         0.0716 
     76 H76        20.1131  -29.2252  -44.7010 H         1 UNK         0.0695 
     77 H77        21.6577  -29.9145  -45.0725 H         1 UNK         0.0695 
     78 H78        22.1902  -27.9919  -46.5986 H         1 UNK         0.0983 
     79 H79        19.4309  -27.2099  -46.0188 H         1 UNK         0.3095 
     80 H80        19.6462  -24.0111  -47.4728 H         1 UNK         0.0454 
     81 H81        19.3926  -25.4092  -49.5182 H         1 UNK         0.0851 
     82 H82        18.3207  -26.5091  -48.6649 H         1 UNK         0.0851 
     83 H83        17.8312  -24.8393  -48.9564 H         1 UNK         0.0851 
     84 H84        17.5017  -25.6799  -46.4815 H         1 UNK         0.2976 
     85 H85        23.7909  -28.2167  -44.9301 H         1 UNK         0.3116 
     86 H86        23.7896  -26.1925  -42.8232 H         1 UNK         0.0646 
     87 H87        26.1070  -27.0250  -42.4564 H         1 UNK         0.0847 
     88 H88        25.8394  -26.6555  -44.1510 H         1 UNK         0.0847 
     89 H89        25.8458  -28.3320  -43.6014 H         1 UNK         0.0847 
     90 H90        21.7194  -27.3930  -42.0800 H         1 UNK         0.3040 
     91 H91        21.6907  -29.8565  -40.7691 H         1 UNK         0.1015 
     92 H92        19.6586  -28.6420  -41.4758 H         1 UNK         0.0786 
     93 H93        19.9605  -27.3689  -40.2958 H         1 UNK         0.0786 
     94 H94        19.5663  -28.9978  -39.7598 H         1 UNK         0.0786 
     95 H95        23.1824  -30.3674  -39.3347 H         1 UNK         0.3172 
     96 H96        23.4518  -30.1239  -36.7547 H         1 UNK         0.0595 
     97 H97        23.6958  -27.6832  -36.5694 H         1 UNK         0.0839 
     98 H98        24.8910  -27.6360  -37.8670 H         1 UNK         0.0839 
     99 H99        25.2836  -28.3646  -36.3159 H         1 UNK         0.0839 
    100 H100       25.4000  -29.4096  -39.6576 H         1 UNK         0.2998 
    101 H101       27.4239  -31.4921  -39.0131 H         1 UNK         0.0822 
    102 H102       28.2659  -29.3423  -39.9452 H         1 UNK         0.0787 
    103 H103       28.5240  -30.6494  -41.0902 H         1 UNK         0.0787 
    104 H104       27.2127  -29.5060  -41.3485 H         1 UNK         0.0787 
    105 H105       24.9226  -30.5811  -41.3857 H         1 UNK         0.3055 
    106 H106       24.6535  -33.3406  -42.4375 H         1 UNK         0.1106 
    107 H107       23.0599  -30.7793  -43.0536 H         1 UNK         0.0828 
    108 H108       24.4612  -31.3134  -43.9813 H         1 UNK         0.0828 
    109 H109       23.0002  -32.2848  -43.9519 H         1 UNK         0.0828 
    110 H110       22.3474  -34.1259  -42.4885 H         1 UNK         0.2931 
    111 H111       20.4519  -34.7911  -41.6513 H         1 UNK         0.0412 
    112 H112       20.5061  -36.2377  -38.2306 H         1 UNK         0.3472 
    113 H113       19.3459  -35.3034  -39.1348 H         1 UNK         0.3472 
    114 H114       20.3178  -32.5378  -39.5971 H         1 UNK         0.0970 
    115 H115       18.9930  -33.4865  -40.2038 H         1 UNK         0.0970 
    116 H116       17.3183  -32.2904  -41.5728 H         1 UNK         0.0612 
    117 H117       18.0455  -33.1628  -42.9120 H         1 UNK         0.0612 
@<TRIPOS>BOND
     1    1    2 1    
     2    1   62 1    
     3    1   63 1    
     4    1   64 1    
     5    2    3 2    
     6    2    4 am   BACKBONE|DICT|INTERRES
     7    4    5 1    
     8    4   65 1    
     9    5    6 1    
    10    5   25 1    
    11    5   66 1    
    12    6    7 1    
    13    6   67 1    
    14    6   68 1    
    15    7    8 1    
    16    8    9 1    
    17    8   69 1    
    18    8   70 1    
    19    9   10 ar   
    20    9   14 ar   
    21   10   11 ar   
    22   10   71 1    
    23   11   12 ar   
    24   11   61 1    
    25   12   13 ar   
    26   12   72 1    
    27   13   14 ar   
    28   13   15 1    
    29   14   73 1    
    30   15   16 1    
    31   15   74 1    
    32   15   75 1    
    33   16   17 1    
    34   17   18 1    
    35   17   76 1    
    36   17   77 1    
    37   18   19 1    
    38   18   27 1    
    39   18   78 1    
    40   19   20 am   BACKBONE|DICT|INTERRES
    41   19   79 1    
    42   20   21 2    
    43   20   22 1    
    44   22   23 1    
    45   22   24 1    
    46   22   80 1    
    47   23   81 1    
    48   23   82 1    
    49   23   83 1    
    50   24   25 am   BACKBONE|DICT|INTERRES
    51   24   84 1    
    52   25   26 2    
    53   27   28 2    
    54   27   29 am   BACKBONE|DICT|INTERRES
    55   29   30 1    
    56   29   85 1    
    57   30   31 1    
    58   30   32 1    
    59   30   86 1    
    60   31   87 1    
    61   31   88 1    
    62   31   89 1    
    63   32   33 2    
    64   32   34 am   BACKBONE|DICT|INTERRES
    65   34   35 1    
    66   34   90 1    
    67   35   36 1    
    68   35   37 1    
    69   35   91 1    
    70   36   92 1    
    71   36   93 1    
    72   36   94 1    
    73   37   38 2    
    74   37   39 am   BACKBONE|DICT|INTERRES
    75   39   40 1    
    76   39   95 1    
    77   40   41 1    
    78   40   42 1    
    79   40   96 1    
    80   41   97 1    
    81   41   98 1    
    82   41   99 1    
    83   42   43 2    
    84   42   44 am   BACKBONE|DICT|INTERRES
    85   44   45 1    
    86   44  100 1    
    87   45   46 1    
    88   45   47 1    
    89   45  101 1    
    90   46  102 1    
    91   46  103 1    
    92   46  104 1    
    93   47   48 2    
    94   47   49 am   BACKBONE|DICT|INTERRES
    95   49   50 1    
    96   49  105 1    
    97   50   51 1    
    98   50   52 1    
    99   50  106 1    
   100   51  107 1    
   101   51  108 1    
   102   51  109 1    
   103   52   53 2    
   104   52   54 am   BACKBONE|DICT|INTERRES
   105   54   55 1    
   106   54  110 1    
   107   55   56 1    
   108   55   59 1    
   109   55  111 1    
   110   56   57 am   BACKBONE|DICT|INTERRES
   111   56   58 2    
   112   57  112 1    
   113   57  113 1    
   114   59   60 1    
   115   59  114 1    
   116   59  115 1    
   117   60   61 1    
   118   61  116 1    
   119   61  117 1    
@<TRIPOS>SUBSTRUCTURE
     1 UNK         1 GROUP             0       ****    0 ROOT    
