@<TRIPOS>MOLECULE
3R8
117   119    1
SMALL
USER_CHARGES


@<TRIPOS>ATOM
      1 CA         15.3769  -25.4532  -42.9672 C.3       0 UNK        -0.2013 
      2 C          16.1738  -24.7555  -44.0594 C.2       0 UNK         0.4866 
      3 O          16.4315  -23.5562  -43.9586 O.2       0 UNK        -0.5176 
      4 N          16.5685  -25.4982  -45.1029 N.am      1 UNK        -0.4884 
      5 CA         17.3773  -25.0101  -46.2307 C.3       1 UNK         0.0853 
      6 C6         17.3279  -25.9993  -47.4266 C.3       10 UNK        -0.0849 
      7 S7         18.1413  -27.6093  -47.1135 S.3       10 UNK        -0.2776 
      8 C8         16.7651  -28.6888  -46.6007 C.3       10 UNK         0.0316 
      9 C9         17.1895  -29.5711  -45.4341 C.ar      10 UNK        -0.0863 
     10 C10        18.1561  -30.5620  -45.6289 C.ar      10 UNK        -0.1009 
     11 C11        18.5904  -31.3495  -44.5605 C.ar      10 UNK        -0.0712 
     12 C12        18.0259  -31.1697  -43.2953 C.ar      10 UNK        -0.0894 
     13 C13        17.0668  -30.1750  -43.0820 C.ar      10 UNK        -0.0745 
     14 C14        16.6464  -29.3840  -44.1577 C.ar      10 UNK        -0.0972 
     15 C15        16.5038  -29.9398  -41.6845 C.3       10 UNK         0.0209 
     16 S16        17.7898  -29.4706  -40.4737 S.3       10 UNK        -0.2568 
     17 C17        18.5113  -27.9794  -41.2368 C.3       10 UNK        -0.0983 
     18 CA         19.8822  -28.2834  -41.9060 C.3       3 UNK         0.0876 
     19 N          20.1821  -27.3411  -42.9852 N.am      3 UNK        -0.4424 
     20 C          20.5554  -26.0582  -42.8553 C.2       2 UNK         0.4918 
     21 O          20.7738  -25.4986  -41.7807 O.2       2 UNK        -0.4875 
     22 CA         20.6221  -25.2529  -44.1545 C.3       2 UNK         0.0481 
     23 CB         21.7702  -25.7325  -45.0641 C.3       2 UNK        -0.1831 
     24 N          19.3240  -25.3865  -44.8051 N.am      2 UNK        -0.4498 
     25 C          18.8284  -24.6653  -45.8160 C.2       1 UNK         0.5027 
     26 O          19.4426  -23.7703  -46.3984 O.2       1 UNK        -0.4969 
     27 C          21.0768  -28.4178  -40.9389 C.2       3 UNK         0.5005 
     28 O          22.0951  -28.9896  -41.3289 O.2       3 UNK        -0.5279 
     29 N          20.9769  -27.8566  -39.7255 N.am      4 UNK        -0.4463 
     30 CA         22.0450  -27.8098  -38.7201 C.3       4 UNK         0.0283 
     31 CB         21.5276  -27.1009  -37.4595 C.3       4 UNK        -0.1875 
     32 C          23.3479  -27.1489  -39.2116 C.2       4 UNK         0.4949 
     33 O          24.4243  -27.5563  -38.7760 O.2       4 UNK        -0.5039 
     34 N          23.2451  -26.1949  -40.1508 N.am      5 UNK        -0.4663 
     35 CA         24.3924  -25.5695  -40.8212 C.3       5 UNK         0.0242 
     36 CB         23.9279  -24.3036  -41.5592 C.3       5 UNK        -0.1982 
     37 C          25.1356  -26.5176  -41.7842 C.2       5 UNK         0.5017 
     38 O          26.2890  -26.2458  -42.1168 O.2       5 UNK        -0.5012 
     39 N          24.4811  -27.6135  -42.1916 N.am      6 UNK        -0.4439 
     40 CA         25.0398  -28.7090  -42.9849 C.3       6 UNK         0.0297 
     41 CB         24.1183  -28.9579  -44.1925 C.3       6 UNK        -0.2006 
     42 C          25.2221  -29.9756  -42.1218 C.2       6 UNK         0.4892 
     43 O          25.2402  -31.0828  -42.6621 O.2       6 UNK        -0.5089 
     44 N          25.3452  -29.7945  -40.7954 N.am      7 UNK        -0.4243 
     45 CA         25.5204  -30.8235  -39.7620 C.3       7 UNK         0.0196 
     46 CB         26.8888  -31.5224  -39.9117 C.3       7 UNK        -0.2007 
     47 C          24.3435  -31.8160  -39.6791 C.2       7 UNK         0.5020 
     48 O          24.5566  -32.9974  -39.4065 O.2       7 UNK        -0.5147 
     49 N          23.1257  -31.3167  -39.9363 N.am      8 UNK        -0.4734 
     50 CA         21.8310  -32.0135  -39.9702 C.3       8 UNK         0.0238 
     51 CB         21.5491  -32.7839  -38.6636 C.3       8 UNK        -0.1912 
     52 C          21.6039  -32.8860  -41.2188 C.2       8 UNK         0.5038 
     53 O          20.4655  -33.3098  -41.4228 O.2       8 UNK        -0.5046 
     54 N          22.6509  -33.0920  -42.0352 N.am      9 UNK        -0.4200 
     55 CA         22.6759  -33.8053  -43.3254 C.3       9 UNK         0.0839 
     56 C          21.8872  -35.1524  -43.3653 C.2       9 UNK         0.5513 
     57 N          21.2486  -35.5123  -44.4717 N.am      9 UNK        -0.7519 
     58 O          21.9182  -35.9249  -42.4094 O.2       9 UNK        -0.4960 
     59 C59        22.5173  -32.8565  -44.5595 C.3       10 UNK        -0.0876 
     60 S60        21.2990  -31.5070  -44.4046 S.3       10 UNK        -0.2414 
     61 C61        19.7246  -32.3391  -44.7537 C.3       10 UNK         0.0169 
     62 H62        14.4800  -24.8800  -42.7333 H         1 UNK         0.0903 
     63 H63        15.0658  -26.4545  -43.2622 H         1 UNK         0.0903 
     64 H64        15.9748  -25.5339  -42.0597 H         1 UNK         0.0903 
     65 H65        16.3206  -26.4749  -45.1404 H         1 UNK         0.3096 
     66 H66        16.9271  -24.0725  -46.5656 H         1 UNK         0.1121 
     67 H67        17.8146  -25.5477  -48.2933 H         1 UNK         0.0849 
     68 H68        16.2947  -26.1660  -47.7353 H         1 UNK         0.0849 
     69 H69        15.8875  -28.0978  -46.3373 H         1 UNK         0.0865 
     70 H70        16.4678  -29.3143  -47.4438 H         1 UNK         0.0865 
     71 H71        18.6017  -30.6906  -46.6061 H         1 UNK         0.1346 
     72 H72        18.3721  -31.7698  -42.4641 H         1 UNK         0.1412 
     73 H73        15.9020  -28.6178  -43.9965 H         1 UNK         0.1426 
     74 H74        15.7355  -29.1651  -41.6990 H         1 UNK         0.0716 
     75 H75        16.0134  -30.8517  -41.3416 H         1 UNK         0.0716 
     76 H76        18.5718  -27.1767  -40.5009 H         1 UNK         0.0695 
     77 H77        17.8075  -27.6144  -41.9863 H         1 UNK         0.0695 
     78 H78        19.8089  -29.2518  -42.4023 H         1 UNK         0.0983 
     79 H79        20.0930  -27.7213  -43.9170 H         1 UNK         0.3095 
     80 H80        20.7808  -24.2032  -43.8996 H         1 UNK         0.0454 
     81 H81        21.8776  -25.0897  -45.9376 H         1 UNK         0.0851 
     82 H82        21.6122  -26.7506  -45.4213 H         1 UNK         0.0851 
     83 H83        22.7235  -25.7159  -44.5345 H         1 UNK         0.0851 
     84 H84        18.6999  -26.0616  -44.3865 H         1 UNK         0.2976 
     85 H85        20.1146  -27.3865  -39.4905 H         1 UNK         0.3116 
     86 H86        22.2850  -28.8413  -38.4544 H         1 UNK         0.0646 
     87 H87        20.6641  -27.6163  -37.0387 H         1 UNK         0.0847 
     88 H88        22.2949  -27.0743  -36.6843 H         1 UNK         0.0847 
     89 H89        21.2378  -26.0697  -37.6658 H         1 UNK         0.0847 
     90 H90        22.3226  -25.9309  -40.4837 H         1 UNK         0.3040 
     91 H91        25.1076  -25.2693  -40.0518 H         1 UNK         0.1015 
     92 H92        23.2443  -24.5368  -42.3748 H         1 UNK         0.0786 
     93 H93        24.7768  -23.7717  -41.9911 H         1 UNK         0.0786 
     94 H94        23.4226  -23.6121  -40.8847 H         1 UNK         0.0786 
     95 H95        23.5478  -27.7897  -41.8288 H         1 UNK         0.3172 
     96 H96        26.0282  -28.4414  -43.3627 H         1 UNK         0.0595 
     97 H97        23.1129  -29.2345  -43.8754 H         1 UNK         0.0839 
     98 H98        24.4964  -29.7635  -44.8231 H         1 UNK         0.0839 
     99 H99        24.0384  -28.0697  -44.8187 H         1 UNK         0.0839 
    100 H100       25.2855  -28.8464  -40.4447 H         1 UNK         0.2998 
    101 H101       25.5270  -30.2925  -38.8087 H         1 UNK         0.0822 
    102 H102       27.0844  -32.1854  -39.0679 H         1 UNK         0.0787 
    103 H103       26.9379  -32.1275  -40.8176 H         1 UNK         0.0787 
    104 H104       27.7025  -30.7981  -39.9472 H         1 UNK         0.0787 
    105 H105       23.0748  -30.3545  -40.2598 H         1 UNK         0.3055 
    106 H106       21.0804  -31.2251  -40.0356 H         1 UNK         0.1106 
    107 H107       20.5192  -33.1423  -38.6415 H         1 UNK         0.0828 
    108 H108       22.1922  -33.6574  -38.5557 H         1 UNK         0.0828 
    109 H109       21.6891  -32.1493  -37.7887 H         1 UNK         0.0828 
    110 H110       23.5320  -32.6806  -41.7613 H         1 UNK         0.2931 
    111 H111       23.7066  -34.1578  -43.3821 H         1 UNK         0.0412 
    112 H112       20.7706  -36.3998  -44.4898 H         1 UNK         0.3472 
    113 H113       21.2300  -34.9186  -45.2843 H         1 UNK         0.3472 
    114 H114       22.3539  -33.3965  -45.4920 H         1 UNK         0.0970 
    115 H115       23.4743  -32.3540  -44.7101 H         1 UNK         0.0970 
    116 H116       19.5972  -33.1893  -44.0827 H         1 UNK         0.0612 
    117 H117       19.7286  -32.7304  -45.7719 H         1 UNK         0.0612 
@<TRIPOS>BOND
     1    1    2 1    
     2    1   62 1    
     3    1   63 1    
     4    1   64 1    
     5    2    3 2    
     6    2    4 am   BACKBONE|DICT|INTERRES
     7    4    5 1    
     8    4   65 1    
     9    5    6 1    
    10    5   25 1    
    11    5   66 1    
    12    6    7 1    
    13    6   67 1    
    14    6   68 1    
    15    7    8 1    
    16    8    9 1    
    17    8   69 1    
    18    8   70 1    
    19    9   10 ar   
    20    9   14 ar   
    21   10   11 ar   
    22   10   71 1    
    23   11   12 ar   
    24   11   61 1    
    25   12   13 ar   
    26   12   72 1    
    27   13   14 ar   
    28   13   15 1    
    29   14   73 1    
    30   15   16 1    
    31   15   74 1    
    32   15   75 1    
    33   16   17 1    
    34   17   18 1    
    35   17   76 1    
    36   17   77 1    
    37   18   19 1    
    38   18   27 1    
    39   18   78 1    
    40   19   20 am   BACKBONE|DICT|INTERRES
    41   19   79 1    
    42   20   21 2    
    43   20   22 1    
    44   22   23 1    
    45   22   24 1    
    46   22   80 1    
    47   23   81 1    
    48   23   82 1    
    49   23   83 1    
    50   24   25 am   BACKBONE|DICT|INTERRES
    51   24   84 1    
    52   25   26 2    
    53   27   28 2    
    54   27   29 am   BACKBONE|DICT|INTERRES
    55   29   30 1    
    56   29   85 1    
    57   30   31 1    
    58   30   32 1    
    59   30   86 1    
    60   31   87 1    
    61   31   88 1    
    62   31   89 1    
    63   32   33 2    
    64   32   34 am   BACKBONE|DICT|INTERRES
    65   34   35 1    
    66   34   90 1    
    67   35   36 1    
    68   35   37 1    
    69   35   91 1    
    70   36   92 1    
    71   36   93 1    
    72   36   94 1    
    73   37   38 2    
    74   37   39 am   BACKBONE|DICT|INTERRES
    75   39   40 1    
    76   39   95 1    
    77   40   41 1    
    78   40   42 1    
    79   40   96 1    
    80   41   97 1    
    81   41   98 1    
    82   41   99 1    
    83   42   43 2    
    84   42   44 am   BACKBONE|DICT|INTERRES
    85   44   45 1    
    86   44  100 1    
    87   45   46 1    
    88   45   47 1    
    89   45  101 1    
    90   46  102 1    
    91   46  103 1    
    92   46  104 1    
    93   47   48 2    
    94   47   49 am   BACKBONE|DICT|INTERRES
    95   49   50 1    
    96   49  105 1    
    97   50   51 1    
    98   50   52 1    
    99   50  106 1    
   100   51  107 1    
   101   51  108 1    
   102   51  109 1    
   103   52   53 2    
   104   52   54 am   BACKBONE|DICT|INTERRES
   105   54   55 1    
   106   54  110 1    
   107   55   56 1    
   108   55   59 1    
   109   55  111 1    
   110   56   57 am   BACKBONE|DICT|INTERRES
   111   56   58 2    
   112   57  112 1    
   113   57  113 1    
   114   59   60 1    
   115   59  114 1    
   116   59  115 1    
   117   60   61 1    
   118   61  116 1    
   119   61  117 1    
@<TRIPOS>SUBSTRUCTURE
     1 UNK         1 GROUP             0       ****    0 ROOT    
