@<TRIPOS>MOLECULE
3R8
117   119    1
SMALL
USER_CHARGES


@<TRIPOS>ATOM
      1 CA         15.3205  -22.8772  -46.2997 C.3       0 UNK        -0.2013 
      2 C          15.3624  -24.2003  -45.5490 C.2       0 UNK         0.4866 
      3 O          14.5127  -24.4359  -44.6890 O.2       0 UNK        -0.5176 
      4 N          16.3420  -25.0551  -45.8769 N.am      1 UNK        -0.4884 
      5 CA         16.6080  -26.3743  -45.2789 C.3       1 UNK         0.0853 
      6 C6         15.4396  -27.3871  -45.4761 C.3       10 UNK        -0.0849 
      7 S7         15.2320  -27.8000  -47.2426 S.3       10 UNK        -0.2776 
      8 C8         15.7919  -29.5383  -47.3107 C.3       10 UNK         0.0316 
      9 C9         17.1488  -29.7715  -46.6512 C.ar      10 UNK        -0.0863 
     10 C10        17.2840  -30.7503  -45.6624 C.ar      10 UNK        -0.1009 
     11 C11        18.5214  -30.9852  -45.0564 C.ar      10 UNK        -0.0712 
     12 C12        19.6285  -30.2154  -45.4267 C.ar      10 UNK        -0.0894 
     13 C13        19.5045  -29.2265  -46.4084 C.ar      10 UNK        -0.0745 
     14 C14        18.2688  -29.0258  -47.0312 C.ar      10 UNK        -0.0972 
     15 C15        20.7007  -28.3799  -46.8160 C.3       10 UNK         0.0209 
     16 S16        20.8724  -26.9051  -45.7598 S.3       10 UNK        -0.2568 
     17 C17        21.9858  -27.5166  -44.4478 C.3       10 UNK        -0.0983 
     18 CA         21.5372  -27.1243  -43.0142 C.3       3 UNK         0.0876 
     19 N          20.1622  -27.5667  -42.7413 N.am      3 UNK        -0.4424 
     20 C          19.3443  -27.1080  -41.7844 C.2       2 UNK         0.4918 
     21 O          19.6911  -26.3081  -40.9132 O.2       2 UNK        -0.4875 
     22 CA         17.8926  -27.6203  -41.8401 C.3       2 UNK         0.0481 
     23 CB         16.9911  -27.0150  -40.7432 C.3       2 UNK        -0.1831 
     24 N          17.3041  -27.4400  -43.1743 N.am      2 UNK        -0.4498 
     25 C          17.1149  -26.2766  -43.8207 C.2       1 UNK         0.5027 
     26 O          17.3805  -25.1754  -43.3307 O.2       1 UNK        -0.4969 
     27 C          22.5652  -27.5931  -41.9525 C.2       3 UNK         0.5005 
     28 O          23.6590  -28.0328  -42.3131 O.2       3 UNK        -0.5279 
     29 N          22.2239  -27.4747  -40.6615 N.am      4 UNK        -0.4463 
     30 CA         22.9867  -27.9580  -39.5028 C.3       4 UNK         0.0283 
     31 CB         22.1919  -27.6700  -38.2199 C.3       4 UNK        -0.1875 
     32 C          24.4224  -27.4153  -39.3844 C.2       4 UNK         0.4949 
     33 O          25.2648  -28.0767  -38.7780 O.2       4 UNK        -0.5039 
     34 N          24.6852  -26.2455  -39.9833 N.am      5 UNK        -0.4663 
     35 CA         26.0208  -25.6588  -40.1187 C.3       5 UNK         0.0242 
     36 CB         25.8852  -24.2045  -40.5979 C.3       5 UNK        -0.1982 
     37 C          26.9453  -26.4533  -41.0623 C.2       5 UNK         0.5017 
     38 O          28.1635  -26.3878  -40.8928 O.2       5 UNK        -0.5012 
     39 N          26.3630  -27.1817  -42.0258 N.am      6 UNK        -0.4439 
     40 CA         27.0679  -28.0935  -42.9244 C.3       6 UNK         0.0297 
     41 CB         26.4481  -28.0295  -44.3318 C.3       6 UNK        -0.2006 
     42 C          27.0241  -29.5189  -42.3577 C.2       6 UNK         0.4892 
     43 O          28.0815  -30.1162  -42.1523 O.2       6 UNK        -0.5089 
     44 N          25.8130  -30.0253  -42.0912 N.am      7 UNK        -0.4243 
     45 CA         25.5539  -31.3359  -41.4990 C.3       7 UNK         0.0196 
     46 CB         25.8570  -32.4671  -42.5018 C.3       7 UNK        -0.2007 
     47 C          24.0886  -31.3918  -41.0606 C.2       7 UNK         0.5020 
     48 O          23.2126  -30.9828  -41.8241 O.2       7 UNK        -0.5147 
     49 N          23.8390  -31.9098  -39.8520 N.am      8 UNK        -0.4734 
     50 CA         22.4932  -32.0929  -39.3016 C.3       8 UNK         0.0238 
     51 CB         22.5967  -32.4693  -37.8150 C.3       8 UNK        -0.1912 
     52 C          21.7006  -33.1563  -40.0805 C.2       8 UNK         0.5038 
     53 O          22.2625  -34.1971  -40.4324 O.2       8 UNK        -0.5046 
     54 N          20.4177  -32.8703  -40.3258 N.am      9 UNK        -0.4200 
     55 CA         19.4859  -33.7387  -41.0569 C.3       9 UNK         0.0839 
     56 C          19.1785  -35.0609  -40.3025 C.2       9 UNK         0.5513 
     57 N          18.9820  -36.1554  -41.0246 N.am      9 UNK        -0.7519 
     58 O          19.0714  -35.0916  -39.0780 O.2       9 UNK        -0.4960 
     59 C59        18.1714  -32.9945  -41.4074 C.3       10 UNK        -0.0876 
     60 S60        18.4366  -31.4454  -42.3370 S.3       10 UNK        -0.2414 
     61 C61        18.6584  -32.0892  -44.0204 C.3       10 UNK         0.0169 
     62 H62        14.3675  -22.7699  -46.8172 H         1 UNK         0.0903 
     63 H63        15.4248  -22.0470  -45.6017 H         1 UNK         0.0903 
     64 H64        16.1175  -22.8004  -47.0391 H         1 UNK         0.0903 
     65 H65        17.0113  -24.7719  -46.5790 H         1 UNK         0.3096 
     66 H66        17.4731  -26.7536  -45.8221 H         1 UNK         0.1121 
     67 H67        14.4998  -26.9855  -45.0964 H         1 UNK         0.0849 
     68 H68        15.5953  -28.3139  -44.9242 H         1 UNK         0.0849 
     69 H69        15.0263  -30.1636  -46.8487 H         1 UNK         0.0865 
     70 H70        15.8490  -29.8495  -48.3546 H         1 UNK         0.0865 
     71 H71        16.4275  -31.3425  -45.3693 H         1 UNK         0.1346 
     72 H72        20.5852  -30.3939  -44.9552 H         1 UNK         0.1412 
     73 H73        18.1708  -28.2715  -47.8006 H         1 UNK         0.1426 
     74 H74        20.5833  -28.0506  -47.8496 H         1 UNK         0.0716 
     75 H75        21.6163  -28.9730  -46.7967 H         1 UNK         0.0716 
     76 H76        22.9762  -27.1095  -44.6613 H         1 UNK         0.0695 
     77 H77        22.0857  -28.6005  -44.5223 H         1 UNK         0.0695 
     78 H78        21.5381  -26.0333  -42.9637 H         1 UNK         0.0983 
     79 H79        19.7862  -28.2255  -43.4071 H         1 UNK         0.3095 
     80 H80        17.9371  -28.6935  -41.6615 H         1 UNK         0.0454 
     81 H81        17.3780  -27.2484  -39.7506 H         1 UNK         0.0851 
     82 H82        15.9784  -27.4140  -40.7974 H         1 UNK         0.0851 
     83 H83        16.9281  -25.9291  -40.8169 H         1 UNK         0.0851 
     84 H84        17.0905  -28.2967  -43.6664 H         1 UNK         0.2976 
     85 H85        21.3169  -27.0540  -40.4711 H         1 UNK         0.3116 
     86 H86        23.0715  -29.0389  -39.6097 H         1 UNK         0.0646 
     87 H87        22.0368  -26.6003  -38.0741 H         1 UNK         0.0847 
     88 H88        21.2141  -28.1516  -38.2409 H         1 UNK         0.0847 
     89 H89        22.7171  -28.0468  -37.3410 H         1 UNK         0.0847 
     90 H90        23.9249  -25.7678  -40.4449 H         1 UNK         0.3040 
     91 H91        26.4900  -25.6542  -39.1322 H         1 UNK         0.1015 
     92 H92        26.8635  -23.7290  -40.6818 H         1 UNK         0.0786 
     93 H93        25.2969  -23.6090  -39.8995 H         1 UNK         0.0786 
     94 H94        25.4089  -24.1441  -41.5774 H         1 UNK         0.0786 
     95 H95        25.3474  -27.2357  -42.0504 H         1 UNK         0.3172 
     96 H96        28.1148  -27.7949  -43.0120 H         1 UNK         0.0595 
     97 H97        25.3963  -28.3168  -44.3349 H         1 UNK         0.0839 
     98 H98        26.9696  -28.7002  -45.0157 H         1 UNK         0.0839 
     99 H99        26.5187  -27.0244  -44.7477 H         1 UNK         0.0839 
    100 H100       24.9820  -29.4601  -42.2618 H         1 UNK         0.2998 
    101 H101       26.1931  -31.4497  -40.6209 H         1 UNK         0.0822 
    102 H102       25.6067  -33.4408  -42.0782 H         1 UNK         0.0787 
    103 H103       25.2791  -32.3524  -43.4198 H         1 UNK         0.0787 
    104 H104       26.9124  -32.4966  -42.7719 H         1 UNK         0.0787 
    105 H105       24.6068  -32.2650  -39.3003 H         1 UNK         0.3055 
    106 H106       21.9657  -31.1397  -39.3799 H         1 UNK         0.1106 
    107 H107       23.1112  -31.6963  -37.2436 H         1 UNK         0.0828 
    108 H108       21.6065  -32.5917  -37.3737 H         1 UNK         0.0828 
    109 H109       23.1336  -33.4082  -37.6727 H         1 UNK         0.0828 
    110 H110       20.0312  -32.0004  -39.9923 H         1 UNK         0.2931 
    111 H111       19.9777  -34.0023  -41.9957 H         1 UNK         0.0412 
    112 H112       18.7646  -37.0205  -40.5543 H         1 UNK         0.3472 
    113 H113       19.0592  -36.1390  -42.0300 H         1 UNK         0.3472 
    114 H114       17.6253  -32.7451  -40.4955 H         1 UNK         0.0970 
    115 H115       17.5050  -33.6400  -41.9829 H         1 UNK         0.0970 
    116 H116       17.9235  -32.8716  -44.2158 H         1 UNK         0.0612 
    117 H117       19.6395  -32.5600  -44.0991 H         1 UNK         0.0612 
@<TRIPOS>BOND
     1    1    2 1    
     2    1   62 1    
     3    1   63 1    
     4    1   64 1    
     5    2    3 2    
     6    2    4 am   BACKBONE|DICT|INTERRES
     7    4    5 1    
     8    4   65 1    
     9    5    6 1    
    10    5   25 1    
    11    5   66 1    
    12    6    7 1    
    13    6   67 1    
    14    6   68 1    
    15    7    8 1    
    16    8    9 1    
    17    8   69 1    
    18    8   70 1    
    19    9   10 ar   
    20    9   14 ar   
    21   10   11 ar   
    22   10   71 1    
    23   11   12 ar   
    24   11   61 1    
    25   12   13 ar   
    26   12   72 1    
    27   13   14 ar   
    28   13   15 1    
    29   14   73 1    
    30   15   16 1    
    31   15   74 1    
    32   15   75 1    
    33   16   17 1    
    34   17   18 1    
    35   17   76 1    
    36   17   77 1    
    37   18   19 1    
    38   18   27 1    
    39   18   78 1    
    40   19   20 am   BACKBONE|DICT|INTERRES
    41   19   79 1    
    42   20   21 2    
    43   20   22 1    
    44   22   23 1    
    45   22   24 1    
    46   22   80 1    
    47   23   81 1    
    48   23   82 1    
    49   23   83 1    
    50   24   25 am   BACKBONE|DICT|INTERRES
    51   24   84 1    
    52   25   26 2    
    53   27   28 2    
    54   27   29 am   BACKBONE|DICT|INTERRES
    55   29   30 1    
    56   29   85 1    
    57   30   31 1    
    58   30   32 1    
    59   30   86 1    
    60   31   87 1    
    61   31   88 1    
    62   31   89 1    
    63   32   33 2    
    64   32   34 am   BACKBONE|DICT|INTERRES
    65   34   35 1    
    66   34   90 1    
    67   35   36 1    
    68   35   37 1    
    69   35   91 1    
    70   36   92 1    
    71   36   93 1    
    72   36   94 1    
    73   37   38 2    
    74   37   39 am   BACKBONE|DICT|INTERRES
    75   39   40 1    
    76   39   95 1    
    77   40   41 1    
    78   40   42 1    
    79   40   96 1    
    80   41   97 1    
    81   41   98 1    
    82   41   99 1    
    83   42   43 2    
    84   42   44 am   BACKBONE|DICT|INTERRES
    85   44   45 1    
    86   44  100 1    
    87   45   46 1    
    88   45   47 1    
    89   45  101 1    
    90   46  102 1    
    91   46  103 1    
    92   46  104 1    
    93   47   48 2    
    94   47   49 am   BACKBONE|DICT|INTERRES
    95   49   50 1    
    96   49  105 1    
    97   50   51 1    
    98   50   52 1    
    99   50  106 1    
   100   51  107 1    
   101   51  108 1    
   102   51  109 1    
   103   52   53 2    
   104   52   54 am   BACKBONE|DICT|INTERRES
   105   54   55 1    
   106   54  110 1    
   107   55   56 1    
   108   55   59 1    
   109   55  111 1    
   110   56   57 am   BACKBONE|DICT|INTERRES
   111   56   58 2    
   112   57  112 1    
   113   57  113 1    
   114   59   60 1    
   115   59  114 1    
   116   59  115 1    
   117   60   61 1    
   118   61  116 1    
   119   61  117 1    
@<TRIPOS>SUBSTRUCTURE
     1 UNK         1 GROUP             0       ****    0 ROOT    
