@<TRIPOS>MOLECULE
3R8
117   119    1
SMALL
USER_CHARGES


@<TRIPOS>ATOM
      1 CA         15.8120  -25.0954  -43.8879 C.3       0 UNK        -0.2013 
      2 C          16.9496  -25.0693  -44.8972 C.2       0 UNK         0.4866 
      3 O          17.6032  -24.0389  -45.0608 O.2       0 UNK        -0.5176 
      4 N          17.2079  -26.1972  -45.5702 N.am      1 UNK        -0.4884 
      5 CA         18.1497  -26.3319  -46.6928 C.3       1 UNK         0.0853 
      6 C6         17.7218  -27.4505  -47.6924 C.3       10 UNK        -0.0849 
      7 S7         15.9085  -27.5842  -47.9273 S.3       10 UNK        -0.2776 
      8 C8         15.5348  -29.3019  -47.4210 C.3       10 UNK         0.0316 
      9 C9         16.1535  -29.7113  -46.0859 C.ar      10 UNK        -0.0863 
     10 C10        17.2738  -30.5493  -46.0746 C.ar      10 UNK        -0.1009 
     11 C11        17.8428  -30.9586  -44.8682 C.ar      10 UNK        -0.0712 
     12 C12        17.2731  -30.5442  -43.6644 C.ar      10 UNK        -0.0894 
     13 C13        16.1595  -29.6986  -43.6518 C.ar      10 UNK        -0.0745 
     14 C14        15.5998  -29.2889  -44.8703 C.ar      10 UNK        -0.0972 
     15 C15        15.5383  -29.2537  -42.3281 C.3       10 UNK         0.0209 
     16 S16        16.7600  -28.8689  -41.0186 S.3       10 UNK        -0.2568 
     17 C17        17.6039  -27.4178  -41.7230 C.3       10 UNK        -0.0983 
     18 CA         19.1416  -27.5869  -41.8266 C.3       3 UNK         0.0876 
     19 N          19.6683  -26.7355  -42.8926 N.am      3 UNK        -0.4424 
     20 C          20.9423  -26.6311  -43.2936 C.2       2 UNK         0.4918 
     21 O          21.8744  -27.2616  -42.7951 O.2       2 UNK        -0.4875 
     22 CA         21.2008  -25.6296  -44.4398 C.3       2 UNK         0.0481 
     23 CB         22.5330  -25.8840  -45.1764 C.3       2 UNK        -0.1831 
     24 N          20.0554  -25.5487  -45.3606 N.am      2 UNK        -0.4498 
     25 C          19.5925  -26.5187  -46.1656 C.2       1 UNK         0.5027 
     26 O          20.2208  -27.5443  -46.4285 O.2       1 UNK        -0.4969 
     27 C          19.8394  -27.2710  -40.4883 C.2       3 UNK         0.5005 
     28 O          19.8315  -26.1122  -40.0655 O.2       3 UNK        -0.5279 
     29 N          20.4790  -28.2820  -39.8859 N.am      4 UNK        -0.4463 
     30 CA         21.3085  -28.2569  -38.6734 C.3       4 UNK         0.0283 
     31 CB         20.5635  -27.6693  -37.4590 C.3       4 UNK        -0.1875 
     32 C          22.6796  -27.5891  -38.8759 C.2       4 UNK         0.4949 
     33 O          23.6627  -28.0758  -38.3191 O.2       4 UNK        -0.5039 
     34 N          22.7450  -26.5272  -39.6905 N.am      5 UNK        -0.4663 
     35 CA         23.9711  -25.8174  -40.0720 C.3       5 UNK         0.0242 
     36 CB         23.6046  -24.5799  -40.9069 C.3       5 UNK        -0.1982 
     37 C          24.9783  -26.7028  -40.8279 C.2       5 UNK         0.5017 
     38 O          26.1836  -26.5591  -40.6217 O.2       5 UNK        -0.5012 
     39 N          24.4662  -27.6213  -41.6586 N.am      6 UNK        -0.4439 
     40 CA         25.2390  -28.6384  -42.3748 C.3       6 UNK         0.0297 
     41 CB         24.3643  -29.2277  -43.4936 C.3       6 UNK        -0.2006 
     42 C          25.7757  -29.7680  -41.4746 C.2       6 UNK         0.4892 
     43 O          26.6291  -30.5284  -41.9338 O.2       6 UNK        -0.5089 
     44 N          25.2556  -29.8890  -40.2417 N.am      7 UNK        -0.4243 
     45 CA         25.5433  -30.8910  -39.2021 C.3       7 UNK         0.0196 
     46 CB         27.0215  -30.8543  -38.7683 C.3       7 UNK        -0.2007 
     47 C          25.0988  -32.3202  -39.5611 C.2       7 UNK         0.5020 
     48 O          24.4093  -32.9586  -38.7668 O.2       7 UNK        -0.5147 
     49 N          25.4686  -32.7873  -40.7584 N.am      8 UNK        -0.4734 
     50 CA         25.0603  -34.0684  -41.3437 C.3       8 UNK         0.0238 
     51 CB         26.0928  -34.4698  -42.4107 C.3       8 UNK        -0.1912 
     52 C          23.6419  -34.0367  -41.9473 C.2       8 UNK         0.5038 
     53 O          23.1423  -35.0841  -42.3601 O.2       8 UNK        -0.5046 
     54 N          23.0290  -32.8501  -42.0005 N.am      9 UNK        -0.4200 
     55 CA         21.6819  -32.5861  -42.5046 C.3       9 UNK         0.0839 
     56 C          20.9871  -31.6198  -41.5098 C.2       9 UNK         0.5513 
     57 N          19.7720  -31.9301  -41.0775 N.am      9 UNK        -0.7519 
     58 O          21.5401  -30.5887  -41.1350 O.2       9 UNK        -0.4960 
     59 C59        21.7314  -32.1288  -44.0002 C.3       10 UNK        -0.0876 
     60 S60        20.5611  -30.8346  -44.5418 S.3       10 UNK        -0.2414 
     61 C61        19.0798  -31.8383  -44.8510 C.3       10 UNK         0.0169 
     62 H62        15.3202  -26.0672  -43.8504 H         1 UNK         0.0903 
     63 H63        16.1840  -24.8595  -42.8914 H         1 UNK         0.0903 
     64 H64        15.0626  -24.3505  -44.1540 H         1 UNK         0.0903 
     65 H65        16.6547  -27.0250  -45.3953 H         1 UNK         0.3096 
     66 H66        18.1410  -25.3925  -47.2509 H         1 UNK         0.1121 
     67 H67        18.1752  -27.2589  -48.6662 H         1 UNK         0.0849 
     68 H68        18.1077  -28.4228  -47.3936 H         1 UNK         0.0849 
     69 H69        14.4518  -29.4221  -47.3663 H         1 UNK         0.0865 
     70 H70        15.8668  -29.9753  -48.2129 H         1 UNK         0.0865 
     71 H71        17.7120  -30.8774  -47.0074 H         1 UNK         0.1346 
     72 H72        17.7126  -30.8744  -42.7338 H         1 UNK         0.1412 
     73 H73        14.7251  -28.6524  -44.8760 H         1 UNK         0.1426 
     74 H74        14.8863  -30.0512  -41.9696 H         1 UNK         0.0716 
     75 H75        14.9024  -28.3798  -42.4777 H         1 UNK         0.0716 
     76 H76        17.1922  -27.2610  -42.7187 H         1 UNK         0.0695 
     77 H77        17.3290  -26.5297  -41.1502 H         1 UNK         0.0695 
     78 H78        19.3693  -28.6157  -42.1170 H         1 UNK         0.0983 
     79 H79        18.9942  -26.1469  -43.3540 H         1 UNK         0.3095 
     80 H80        21.2741  -24.6485  -43.9689 H         1 UNK         0.0454 
     81 H81        23.3785  -25.7755  -44.4959 H         1 UNK         0.0851 
     82 H82        22.6793  -25.1753  -45.9911 H         1 UNK         0.0851 
     83 H83        22.5852  -26.8907  -45.5909 H         1 UNK         0.0851 
     84 H84        19.4370  -24.7527  -45.2243 H         1 UNK         0.2976 
     85 H85        20.5593  -29.1568  -40.4005 H         1 UNK         0.3116 
     86 H86        21.5101  -29.3060  -38.4500 H         1 UNK         0.0646 
     87 H87        20.3780  -26.6004  -37.5668 H         1 UNK         0.0847 
     88 H88        19.6048  -28.1637  -37.3035 H         1 UNK         0.0847 
     89 H89        21.1486  -27.8014  -36.5481 H         1 UNK         0.0847 
     90 H90        21.8711  -26.1902  -40.0803 H         1 UNK         0.3040 
     91 H91        24.4570  -25.4824  -39.1530 H         1 UNK         0.1015 
     92 H92        24.4969  -24.0122  -41.1746 H         1 UNK         0.0786 
     93 H93        22.9478  -23.9080  -40.3540 H         1 UNK         0.0786 
     94 H94        23.1017  -24.8526  -41.8351 H         1 UNK         0.0786 
     95 H95        23.4623  -27.6103  -41.8314 H         1 UNK         0.3172 
     96 H96        26.1017  -28.1524  -42.8349 H         1 UNK         0.0595 
     97 H97        23.4494  -29.6688  -43.0958 H         1 UNK         0.0839 
     98 H98        24.8935  -30.0058  -44.0453 H         1 UNK         0.0839 
     99 H99        24.0752  -28.4627  -44.2138 H         1 UNK         0.0839 
    100 H100       24.5668  -29.1986  -39.9669 H         1 UNK         0.2998 
    101 H101       24.9466  -30.5896  -38.3392 H         1 UNK         0.0822 
    102 H102       27.1959  -31.5286  -37.9288 H         1 UNK         0.0787 
    103 H103       27.3132  -29.8543  -38.4468 H         1 UNK         0.0787 
    104 H104       27.6943  -31.1577  -39.5708 H         1 UNK         0.0787 
    105 H105       26.0277  -32.1657  -41.3408 H         1 UNK         0.3055 
    106 H106       25.0593  -34.8289  -40.5595 H         1 UNK         0.1106 
    107 H107       27.0921  -34.5542  -41.9834 H         1 UNK         0.0828 
    108 H108       25.8482  -35.4380  -42.8500 H         1 UNK         0.0828 
    109 H109       26.1355  -33.7437  -43.2236 H         1 UNK         0.0828 
    110 H110       23.4891  -32.0529  -41.5845 H         1 UNK         0.2931 
    111 H111       21.1138  -33.5185  -42.4751 H         1 UNK         0.0412 
    112 H112       19.3076  -31.3283  -40.4173 H         1 UNK         0.3472 
    113 H113       19.3233  -32.7841  -41.3691 H         1 UNK         0.3472 
    114 H114       22.7217  -31.7360  -44.2348 H         1 UNK         0.0970 
    115 H115       21.6207  -32.9987  -44.6493 H         1 UNK         0.0970 
    116 H116       18.9760  -32.5951  -44.0720 H         1 UNK         0.0612 
    117 H117       19.1936  -32.3733  -45.7950 H         1 UNK         0.0612 
@<TRIPOS>BOND
     1    1    2 1    
     2    1   62 1    
     3    1   63 1    
     4    1   64 1    
     5    2    3 2    
     6    2    4 am   BACKBONE|DICT|INTERRES
     7    4    5 1    
     8    4   65 1    
     9    5    6 1    
    10    5   25 1    
    11    5   66 1    
    12    6    7 1    
    13    6   67 1    
    14    6   68 1    
    15    7    8 1    
    16    8    9 1    
    17    8   69 1    
    18    8   70 1    
    19    9   10 ar   
    20    9   14 ar   
    21   10   11 ar   
    22   10   71 1    
    23   11   12 ar   
    24   11   61 1    
    25   12   13 ar   
    26   12   72 1    
    27   13   14 ar   
    28   13   15 1    
    29   14   73 1    
    30   15   16 1    
    31   15   74 1    
    32   15   75 1    
    33   16   17 1    
    34   17   18 1    
    35   17   76 1    
    36   17   77 1    
    37   18   19 1    
    38   18   27 1    
    39   18   78 1    
    40   19   20 am   BACKBONE|DICT|INTERRES
    41   19   79 1    
    42   20   21 2    
    43   20   22 1    
    44   22   23 1    
    45   22   24 1    
    46   22   80 1    
    47   23   81 1    
    48   23   82 1    
    49   23   83 1    
    50   24   25 am   BACKBONE|DICT|INTERRES
    51   24   84 1    
    52   25   26 2    
    53   27   28 2    
    54   27   29 am   BACKBONE|DICT|INTERRES
    55   29   30 1    
    56   29   85 1    
    57   30   31 1    
    58   30   32 1    
    59   30   86 1    
    60   31   87 1    
    61   31   88 1    
    62   31   89 1    
    63   32   33 2    
    64   32   34 am   BACKBONE|DICT|INTERRES
    65   34   35 1    
    66   34   90 1    
    67   35   36 1    
    68   35   37 1    
    69   35   91 1    
    70   36   92 1    
    71   36   93 1    
    72   36   94 1    
    73   37   38 2    
    74   37   39 am   BACKBONE|DICT|INTERRES
    75   39   40 1    
    76   39   95 1    
    77   40   41 1    
    78   40   42 1    
    79   40   96 1    
    80   41   97 1    
    81   41   98 1    
    82   41   99 1    
    83   42   43 2    
    84   42   44 am   BACKBONE|DICT|INTERRES
    85   44   45 1    
    86   44  100 1    
    87   45   46 1    
    88   45   47 1    
    89   45  101 1    
    90   46  102 1    
    91   46  103 1    
    92   46  104 1    
    93   47   48 2    
    94   47   49 am   BACKBONE|DICT|INTERRES
    95   49   50 1    
    96   49  105 1    
    97   50   51 1    
    98   50   52 1    
    99   50  106 1    
   100   51  107 1    
   101   51  108 1    
   102   51  109 1    
   103   52   53 2    
   104   52   54 am   BACKBONE|DICT|INTERRES
   105   54   55 1    
   106   54  110 1    
   107   55   56 1    
   108   55   59 1    
   109   55  111 1    
   110   56   57 am   BACKBONE|DICT|INTERRES
   111   56   58 2    
   112   57  112 1    
   113   57  113 1    
   114   59   60 1    
   115   59  114 1    
   116   59  115 1    
   117   60   61 1    
   118   61  116 1    
   119   61  117 1    
@<TRIPOS>SUBSTRUCTURE
     1 UNK         1 GROUP             0       ****    0 ROOT    
