@<TRIPOS>MOLECULE
3R8
117   119    1
SMALL
USER_CHARGES


@<TRIPOS>ATOM
      1 CA         16.3450  -23.1040  -42.9549 C.3       0 UNK        -0.2013 
      2 C          16.2210  -23.8966  -44.2473 C.2       0 UNK         0.4866 
      3 O          16.4006  -23.3323  -45.3262 O.2       0 UNK        -0.5176 
      4 N          15.9051  -25.1957  -44.1465 N.am      1 UNK        -0.4884 
      5 CA         15.7383  -26.1143  -45.2831 C.3       1 UNK         0.0853 
      6 C6         14.9064  -27.3756  -44.8800 C.3       10 UNK        -0.0849 
      7 S7         15.4179  -29.0186  -45.5095 S.3       10 UNK        -0.2776 
      8 C8         15.6481  -29.9637  -43.9680 C.3       10 UNK         0.0316 
      9 C9         16.9825  -29.6621  -43.3001 C.ar      10 UNK        -0.0863 
     10 C10        18.1261  -30.3645  -43.6857 C.ar      10 UNK        -0.1009 
     11 C11        19.3514  -30.1359  -43.0532 C.ar      10 UNK        -0.0712 
     12 C12        19.4344  -29.1802  -42.0348 C.ar      10 UNK        -0.0894 
     13 C13        18.2979  -28.4609  -41.6461 C.ar      10 UNK        -0.0745 
     14 C14        17.0740  -28.7158  -42.2755 C.ar      10 UNK        -0.0972 
     15 C15        18.3694  -27.4323  -40.5243 C.3       10 UNK         0.0209 
     16 S16        17.9947  -25.7531  -41.1272 S.3       10 UNK        -0.2568 
     17 C17        19.6371  -24.9550  -41.1723 C.3       10 UNK        -0.0983 
     18 CA         20.6339  -25.5886  -42.1760 C.3       3 UNK         0.0876 
     19 N          20.0366  -25.7802  -43.5039 N.am      3 UNK        -0.4424 
     20 C          20.4355  -26.6713  -44.4222 C.2       2 UNK         0.4918 
     21 O          21.4811  -27.3153  -44.3319 O.2       2 UNK        -0.4875 
     22 CA         19.5058  -26.8591  -45.6308 C.3       2 UNK         0.0481 
     23 CB         19.7327  -28.1908  -46.3728 C.3       2 UNK        -0.1831 
     24 N          18.1111  -26.7276  -45.2051 N.am      2 UNK        -0.4498 
     25 C          17.0890  -26.3698  -45.9911 C.2       1 UNK         0.5027 
     26 O          17.1883  -26.1834  -47.2055 O.2       1 UNK        -0.4969 
     27 C          21.9892  -24.8433  -42.1874 C.2       3 UNK         0.5005 
     28 O          22.5082  -24.5133  -41.1194 O.2       3 UNK        -0.5279 
     29 N          22.5630  -24.6154  -43.3782 N.am      4 UNK        -0.4463 
     30 CA         23.9791  -24.2914  -43.5637 C.3       4 UNK         0.0283 
     31 CB         24.2107  -23.8132  -45.0058 C.3       4 UNK        -0.1875 
     32 C          24.8829  -25.4980  -43.2392 C.2       4 UNK         0.4949 
     33 O          26.0149  -25.3015  -42.7965 O.2       4 UNK        -0.5039 
     34 N          24.3600  -26.7168  -43.4395 N.am      5 UNK        -0.4663 
     35 CA         24.9487  -27.9652  -42.9612 C.3       5 UNK         0.0242 
     36 CB         24.5443  -29.0987  -43.9204 C.3       5 UNK        -0.1982 
     37 C          24.4555  -28.2698  -41.5362 C.2       5 UNK         0.5017 
     38 O          23.4289  -27.7368  -41.1060 O.2       5 UNK        -0.5012 
     39 N          25.1806  -29.1567  -40.8426 N.am      6 UNK        -0.4439 
     40 CA         24.7987  -29.7154  -39.5412 C.3       6 UNK         0.0297 
     41 CB         25.9782  -30.5392  -38.9956 C.3       6 UNK        -0.2006 
     42 C          23.5328  -30.5882  -39.6348 C.2       6 UNK         0.4892 
     43 O          23.1540  -31.0018  -40.7306 O.2       6 UNK        -0.5089 
     44 N          22.9321  -30.9022  -38.4786 N.am      7 UNK        -0.4243 
     45 CA         21.7056  -31.7047  -38.3496 C.3       7 UNK         0.0196 
     46 CB         21.2844  -31.7408  -36.8713 C.3       7 UNK        -0.2007 
     47 C          21.7897  -33.1366  -38.9195 C.2       7 UNK         0.5020 
     48 O          20.7508  -33.7242  -39.2201 O.2       7 UNK        -0.5147 
     49 N          23.0100  -33.6712  -39.0680 N.am      8 UNK        -0.4734 
     50 CA         23.2857  -34.9361  -39.7574 C.3       8 UNK         0.0238 
     51 CB         24.6748  -35.4422  -39.3343 C.3       8 UNK        -0.1912 
     52 C          23.1994  -34.8250  -41.2937 C.2       8 UNK         0.5038 
     53 O          23.0535  -35.8528  -41.9564 O.2       8 UNK        -0.5046 
     54 N          23.3018  -33.5985  -41.8256 N.am      9 UNK        -0.4200 
     55 CA         23.2228  -33.2314  -43.2492 C.3       9 UNK         0.0839 
     56 C          24.3625  -33.8039  -44.1449 C.2       9 UNK         0.5513 
     57 N          25.4921  -34.2214  -43.5860 N.am      9 UNK        -0.7519 
     58 O          24.2397  -33.8423  -45.3666 O.2       9 UNK        -0.4960 
     59 C59        21.8065  -33.4427  -43.8550 C.3       10 UNK        -0.0876 
     60 S60        20.4785  -32.6468  -42.8856 S.3       10 UNK        -0.2414 
     61 C61        20.5762  -30.9300  -43.4812 C.3       10 UNK         0.0169 
     62 H62        17.3888  -22.8573  -42.7634 H         1 UNK         0.0903 
     63 H63        15.7829  -22.1734  -43.0288 H         1 UNK         0.0903 
     64 H64        15.9619  -23.6586  -42.0986 H         1 UNK         0.0903 
     65 H65        15.7784  -25.5959  -43.2276 H         1 UNK         0.3096 
     66 H66        15.1366  -25.5798  -46.0228 H         1 UNK         0.1121 
     67 H67        13.8730  -27.2259  -45.1969 H         1 UNK         0.0849 
     68 H68        14.8392  -27.4441  -43.7943 H         1 UNK         0.0849 
     69 H69        14.8201  -29.7733  -43.2834 H         1 UNK         0.0865 
     70 H70        15.5957  -31.0277  -44.2043 H         1 UNK         0.0865 
     71 H71        18.0618  -31.1043  -44.4721 H         1 UNK         0.1346 
     72 H72        20.3833  -29.0036  -41.5459 H         1 UNK         0.1412 
     73 H73        16.1914  -28.1784  -41.9573 H         1 UNK         0.1426 
     74 H74        19.3429  -27.4492  -40.0320 H         1 UNK         0.0716 
     75 H75        17.6388  -27.6977  -39.7590 H         1 UNK         0.0716 
     76 H76        20.0465  -24.9766  -40.1604 H         1 UNK         0.0695 
     77 H77        19.4821  -23.9015  -41.4119 H         1 UNK         0.0695 
     78 H78        20.8782  -26.5830  -41.7974 H         1 UNK         0.0983 
     79 H79        19.1960  -25.2512  -43.6813 H         1 UNK         0.3095 
     80 H80        19.7371  -26.0430  -46.3180 H         1 UNK         0.0454 
     81 H81        19.5027  -29.0452  -45.7396 H         1 UNK         0.0851 
     82 H82        20.7694  -28.2915  -46.6958 H         1 UNK         0.0851 
     83 H83        19.1105  -28.2618  -47.2646 H         1 UNK         0.0851 
     84 H84        17.9276  -26.9127  -44.2275 H         1 UNK         0.2976 
     85 H85        22.0535  -24.9048  -44.2003 H         1 UNK         0.3116 
     86 H86        24.2428  -23.4787  -42.8836 H         1 UNK         0.0646 
     87 H87        23.9628  -24.5860  -45.7347 H         1 UNK         0.0847 
     88 H88        25.2560  -23.5428  -45.1617 H         1 UNK         0.0847 
     89 H89        23.6122  -22.9309  -45.2331 H         1 UNK         0.0847 
     90 H90        23.3982  -26.7875  -43.7546 H         1 UNK         0.3040 
     91 H91        26.0377  -27.8798  -42.9489 H         1 UNK         0.1015 
     92 H92        23.4625  -29.2362  -43.9466 H         1 UNK         0.0786 
     93 H93        24.9850  -30.0495  -43.6178 H         1 UNK         0.0786 
     94 H94        24.8793  -28.8957  -44.9377 H         1 UNK         0.0786 
     95 H95        25.9881  -29.5691  -41.2861 H         1 UNK         0.3172 
     96 H96        24.5959  -28.8868  -38.8594 H         1 UNK         0.0595 
     97 H97        26.2086  -31.3906  -39.6378 H         1 UNK         0.0839 
     98 H98        25.7631  -30.9312  -38.0007 H         1 UNK         0.0839 
     99 H99        26.8796  -29.9320  -38.9087 H         1 UNK         0.0839 
    100 H100       23.3193  -30.5369  -37.6201 H         1 UNK         0.2998 
    101 H101       20.9252  -31.1900  -38.9147 H         1 UNK         0.0822 
    102 H102       21.1081  -30.7376  -36.4827 H         1 UNK         0.0787 
    103 H103       20.3577  -32.3020  -36.7421 H         1 UNK         0.0787 
    104 H104       22.0426  -32.2164  -36.2478 H         1 UNK         0.0787 
    105 H105       23.8065  -33.1267  -38.7716 H         1 UNK         0.3055 
    106 H106       22.5416  -35.6726  -39.4450 H         1 UNK         0.1106 
    107 H107       24.9040  -36.3968  -39.8102 H         1 UNK         0.0828 
    108 H108       25.4637  -34.7422  -39.6121 H         1 UNK         0.0828 
    109 H109       24.7286  -35.5997  -38.2569 H         1 UNK         0.0828 
    110 H110       23.3584  -32.7986  -41.2017 H         1 UNK         0.2931 
    111 H111       23.4035  -32.1562  -43.2610 H         1 UNK         0.0412 
    112 H112       25.6093  -34.1880  -42.5863 H         1 UNK         0.3472 
    113 H113       26.2299  -34.5815  -44.1709 H         1 UNK         0.3472 
    114 H114       21.5841  -34.5088  -43.9225 H         1 UNK         0.0970 
    115 H115       21.7617  -33.0639  -44.8776 H         1 UNK         0.0970 
    116 H116       21.4880  -30.4692  -43.0979 H         1 UNK         0.0612 
    117 H117       20.6523  -30.9190  -44.5691 H         1 UNK         0.0612 
@<TRIPOS>BOND
     1    1    2 1    
     2    1   62 1    
     3    1   63 1    
     4    1   64 1    
     5    2    3 2    
     6    2    4 am   BACKBONE|DICT|INTERRES
     7    4    5 1    
     8    4   65 1    
     9    5    6 1    
    10    5   25 1    
    11    5   66 1    
    12    6    7 1    
    13    6   67 1    
    14    6   68 1    
    15    7    8 1    
    16    8    9 1    
    17    8   69 1    
    18    8   70 1    
    19    9   10 ar   
    20    9   14 ar   
    21   10   11 ar   
    22   10   71 1    
    23   11   12 ar   
    24   11   61 1    
    25   12   13 ar   
    26   12   72 1    
    27   13   14 ar   
    28   13   15 1    
    29   14   73 1    
    30   15   16 1    
    31   15   74 1    
    32   15   75 1    
    33   16   17 1    
    34   17   18 1    
    35   17   76 1    
    36   17   77 1    
    37   18   19 1    
    38   18   27 1    
    39   18   78 1    
    40   19   20 am   BACKBONE|DICT|INTERRES
    41   19   79 1    
    42   20   21 2    
    43   20   22 1    
    44   22   23 1    
    45   22   24 1    
    46   22   80 1    
    47   23   81 1    
    48   23   82 1    
    49   23   83 1    
    50   24   25 am   BACKBONE|DICT|INTERRES
    51   24   84 1    
    52   25   26 2    
    53   27   28 2    
    54   27   29 am   BACKBONE|DICT|INTERRES
    55   29   30 1    
    56   29   85 1    
    57   30   31 1    
    58   30   32 1    
    59   30   86 1    
    60   31   87 1    
    61   31   88 1    
    62   31   89 1    
    63   32   33 2    
    64   32   34 am   BACKBONE|DICT|INTERRES
    65   34   35 1    
    66   34   90 1    
    67   35   36 1    
    68   35   37 1    
    69   35   91 1    
    70   36   92 1    
    71   36   93 1    
    72   36   94 1    
    73   37   38 2    
    74   37   39 am   BACKBONE|DICT|INTERRES
    75   39   40 1    
    76   39   95 1    
    77   40   41 1    
    78   40   42 1    
    79   40   96 1    
    80   41   97 1    
    81   41   98 1    
    82   41   99 1    
    83   42   43 2    
    84   42   44 am   BACKBONE|DICT|INTERRES
    85   44   45 1    
    86   44  100 1    
    87   45   46 1    
    88   45   47 1    
    89   45  101 1    
    90   46  102 1    
    91   46  103 1    
    92   46  104 1    
    93   47   48 2    
    94   47   49 am   BACKBONE|DICT|INTERRES
    95   49   50 1    
    96   49  105 1    
    97   50   51 1    
    98   50   52 1    
    99   50  106 1    
   100   51  107 1    
   101   51  108 1    
   102   51  109 1    
   103   52   53 2    
   104   52   54 am   BACKBONE|DICT|INTERRES
   105   54   55 1    
   106   54  110 1    
   107   55   56 1    
   108   55   59 1    
   109   55  111 1    
   110   56   57 am   BACKBONE|DICT|INTERRES
   111   56   58 2    
   112   57  112 1    
   113   57  113 1    
   114   59   60 1    
   115   59  114 1    
   116   59  115 1    
   117   60   61 1    
   118   61  116 1    
   119   61  117 1    
@<TRIPOS>SUBSTRUCTURE
     1 UNK         1 GROUP             0       ****    0 ROOT    
