@<TRIPOS>MOLECULE
3R8
117   119    1
SMALL
USER_CHARGES


@<TRIPOS>ATOM
      1 CA         16.4999  -22.8001  -46.9575 C.3       0 UNK        -0.2013 
      2 C          16.2811  -24.2772  -46.6672 C.2       0 UNK         0.4866 
      3 O          16.0943  -25.0637  -47.5960 O.2       0 UNK        -0.5176 
      4 N          16.3051  -24.6613  -45.3873 N.am      1 UNK        -0.4884 
      5 CA         16.1806  -26.0379  -44.9125 C.3       1 UNK         0.0853 
      6 C6         14.7069  -26.5391  -44.9452 C.3       10 UNK        -0.0849 
      7 S7         14.4142  -28.3295  -44.6774 S.3       10 UNK        -0.2776 
      8 C8         15.2829  -29.1611  -46.0537 C.3       10 UNK         0.0316 
      9 C9         16.7153  -29.5124  -45.6718 C.ar      10 UNK        -0.0863 
     10 C10        16.9666  -30.4629  -44.6744 C.ar      10 UNK        -0.1009 
     11 C11        18.2732  -30.7081  -44.2396 C.ar      10 UNK        -0.0712 
     12 C12        19.3275  -29.9960  -44.8159 C.ar      10 UNK        -0.0894 
     13 C13        19.0941  -29.0655  -45.8300 C.ar      10 UNK        -0.0745 
     14 C14        17.7893  -28.8555  -46.2792 C.ar      10 UNK        -0.0972 
     15 C15        20.2402  -28.2529  -46.4130 C.3       10 UNK         0.0209 
     16 S16        20.5036  -26.7064  -45.4819 S.3       10 UNK        -0.2568 
     17 C17        21.5348  -27.2874  -44.0911 C.3       10 UNK        -0.0983 
     18 CA         21.1726  -26.6554  -42.7190 C.3       3 UNK         0.0876 
     19 N          19.7478  -26.7907  -42.3738 N.am      3 UNK        -0.4424 
     20 C          19.1155  -27.8618  -41.8726 C.2       2 UNK         0.4918 
     21 O          19.6743  -28.8978  -41.5255 O.2       2 UNK        -0.4875 
     22 CA         17.5854  -27.7853  -41.7446 C.3       2 UNK         0.0481 
     23 CB         17.1574  -26.9642  -40.5128 C.3       2 UNK        -0.1831 
     24 N          16.9130  -27.3509  -42.9746 N.am      2 UNK        -0.4498 
     25 C          16.8888  -26.1414  -43.5459 C.2       1 UNK         0.5027 
     26 O          17.4326  -25.1451  -43.0577 O.2       1 UNK        -0.4969 
     27 C          22.1148  -27.1642  -41.6017 C.2       3 UNK         0.5005 
     28 O          22.8831  -28.1046  -41.8195 O.2       3 UNK        -0.5279 
     29 N          22.0365  -26.5508  -40.4110 N.am      4 UNK        -0.4463 
     30 CA         22.8021  -26.9399  -39.2153 C.3       4 UNK         0.0283 
     31 CB         22.4332  -26.0146  -38.0457 C.3       4 UNK        -0.1875 
     32 C          24.3312  -26.9743  -39.4142 C.2       4 UNK         0.4949 
     33 O          25.0023  -27.8085  -38.8073 O.2       4 UNK        -0.5039 
     34 N          24.8431  -26.1069  -40.2991 N.am      5 UNK        -0.4663 
     35 CA         26.2449  -26.0632  -40.7256 C.3       5 UNK         0.0242 
     36 CB         26.4900  -24.7563  -41.4973 C.3       5 UNK        -0.1982 
     37 C          26.6836  -27.2753  -41.5723 C.2       5 UNK         0.5017 
     38 O          27.8824  -27.5460  -41.6416 O.2       5 UNK        -0.5012 
     39 N          25.7274  -27.9914  -42.1813 N.am      6 UNK        -0.4439 
     40 CA         25.9410  -29.2074  -42.9699 C.3       6 UNK         0.0297 
     41 CB         25.1224  -29.1117  -44.2716 C.3       6 UNK        -0.2006 
     42 C          25.5763  -30.4537  -42.1417 C.2       6 UNK         0.4892 
     43 O          24.9457  -31.3767  -42.6620 O.2       6 UNK        -0.5089 
     44 N          25.9475  -30.4382  -40.8506 N.am      7 UNK        -0.4243 
     45 CA         25.7194  -31.4795  -39.8372 C.3       7 UNK         0.0196 
     46 CB         26.5789  -32.7238  -40.1462 C.3       7 UNK        -0.2007 
     47 C          24.2319  -31.8313  -39.6281 C.2       7 UNK         0.5020 
     48 O          23.9166  -32.9632  -39.2557 O.2       7 UNK        -0.5147 
     49 N          23.3432  -30.8654  -39.9085 N.am      8 UNK        -0.4734 
     50 CA         21.8802  -30.9785  -39.9091 C.3       8 UNK         0.0238 
     51 CB         21.3452  -31.0735  -38.4650 C.3       8 UNK        -0.1912 
     52 C          21.3532  -32.1058  -40.8248 C.2       8 UNK         0.5038 
     53 O          20.3625  -32.7525  -40.4815 O.2       8 UNK        -0.5046 
     54 N          22.0539  -32.3336  -41.9476 N.am      9 UNK        -0.4200 
     55 CA         21.8781  -33.4276  -42.9197 C.3       9 UNK         0.0839 
     56 C          21.9007  -34.8780  -42.3456 C.2       9 UNK         0.5513 
     57 N          22.4504  -35.1069  -41.1577 N.am      9 UNK        -0.7519 
     58 O          21.4655  -35.8200  -43.0033 O.2       9 UNK        -0.4960 
     59 C59        20.8007  -33.1492  -44.0143 C.3       10 UNK        -0.0876 
     60 S60        19.0376  -33.3331  -43.5533 S.3       10 UNK        -0.2414 
     61 C61        18.5367  -31.6484  -43.0698 C.3       10 UNK         0.0169 
     62 H62        16.6380  -22.2211  -46.0443 H         1 UNK         0.0903 
     63 H63        17.3843  -22.6674  -47.5806 H         1 UNK         0.0903 
     64 H64        15.6420  -22.3916  -47.4914 H         1 UNK         0.0903 
     65 H65        16.5343  -24.0011  -44.6528 H         1 UNK         0.3096 
     66 H66        16.7701  -26.6384  -45.5959 H         1 UNK         0.1121 
     67 H67        14.2593  -26.2949  -45.9098 H         1 UNK         0.0849 
     68 H68        14.1174  -25.9900  -44.2088 H         1 UNK         0.0849 
     69 H69        14.7498  -30.0797  -46.3033 H         1 UNK         0.0865 
     70 H70        15.2482  -28.5350  -46.9470 H         1 UNK         0.0865 
     71 H71        16.1389  -30.9755  -44.2028 H         1 UNK         0.1346 
     72 H72        20.3294  -30.1385  -44.4445 H         1 UNK         0.1412 
     73 H73        17.6083  -28.1332  -47.0642 H         1 UNK         0.1426 
     74 H74        21.1596  -28.8403  -46.4305 H         1 UNK         0.0716 
     75 H75        20.0225  -28.0018  -47.4522 H         1 UNK         0.0716 
     76 H76        22.5707  -27.0558  -44.3458 H         1 UNK         0.0695 
     77 H77        21.4851  -28.3721  -44.0250 H         1 UNK         0.0695 
     78 H78        21.3581  -25.5835  -42.8030 H         1 UNK         0.0983 
     79 H79        19.1602  -26.0014  -42.6235 H         1 UNK         0.3095 
     80 H80        17.2369  -28.8068  -41.5829 H         1 UNK         0.0454 
     81 H81        16.0735  -26.9570  -40.3991 H         1 UNK         0.0851 
     82 H82        17.4962  -25.9296  -40.5650 H         1 UNK         0.0851 
     83 H83        17.5756  -27.3922  -39.6009 H         1 UNK         0.0851 
     84 H84        16.4475  -28.0945  -43.4819 H         1 UNK         0.2976 
     85 H85        21.3705  -25.7993  -40.2995 H         1 UNK         0.3116 
     86 H86        22.4917  -27.9535  -38.9536 H         1 UNK         0.0646 
     87 H87        21.3687  -26.0669  -37.8169 H         1 UNK         0.0847 
     88 H88        22.9702  -26.2985  -37.1394 H         1 UNK         0.0847 
     89 H89        22.6821  -24.9743  -38.2586 H         1 UNK         0.0847 
     90 H90        24.2117  -25.4576  -40.7456 H         1 UNK         0.3040 
     91 H91        26.8692  -26.0552  -39.8291 H         1 UNK         0.1015 
     92 H92        25.8813  -24.7001  -42.4007 H         1 UNK         0.0786 
     93 H93        27.5342  -24.6728  -41.8028 H         1 UNK         0.0786 
     94 H94        26.2646  -23.8839  -40.8836 H         1 UNK         0.0786 
     95 H95        24.7520  -27.7577  -42.0100 H         1 UNK         0.3172 
     96 H96        26.9935  -29.3009  -43.2441 H         1 UNK         0.0595 
     97 H97        24.0501  -29.1084  -44.0738 H         1 UNK         0.0839 
     98 H98        25.3286  -29.9596  -44.9258 H         1 UNK         0.0839 
     99 H99        25.3644  -28.2069  -44.8290 H         1 UNK         0.0839 
    100 H100       26.4248  -29.6108  -40.5190 H         1 UNK         0.2998 
    101 H101       26.0640  -31.0632  -38.8894 H         1 UNK         0.0822 
    102 H102       26.5278  -33.4492  -39.3332 H         1 UNK         0.0787 
    103 H103       26.2452  -33.2286  -41.0536 H         1 UNK         0.0787 
    104 H104       27.6284  -32.4595  -40.2756 H         1 UNK         0.0787 
    105 H105       23.7073  -29.9825  -40.2433 H         1 UNK         0.3055 
    106 H106       21.5136  -30.0466  -40.3352 H         1 UNK         0.1106 
    107 H107       20.2559  -31.0209  -38.4488 H         1 UNK         0.0828 
    108 H108       21.6341  -32.0111  -37.9890 H         1 UNK         0.0828 
    109 H109       21.7164  -30.2546  -37.8490 H         1 UNK         0.0828 
    110 H110       22.8880  -31.7768  -42.0952 H         1 UNK         0.2931 
    111 H111       22.8231  -33.3925  -43.4635 H         1 UNK         0.0412 
    112 H112       22.4774  -36.0486  -40.8003 H         1 UNK         0.3472 
    113 H113       22.8271  -34.3464  -40.6057 H         1 UNK         0.3472 
    114 H114       20.9677  -33.8369  -44.8450 H         1 UNK         0.0970 
    115 H115       20.9726  -32.1686  -44.4471 H         1 UNK         0.0970 
    116 H116       19.3040  -31.2192  -42.4327 H         1 UNK         0.0612 
    117 H117       17.6438  -31.7217  -42.4476 H         1 UNK         0.0612 
@<TRIPOS>BOND
     1    1    2 1    
     2    1   62 1    
     3    1   63 1    
     4    1   64 1    
     5    2    3 2    
     6    2    4 am   BACKBONE|DICT|INTERRES
     7    4    5 1    
     8    4   65 1    
     9    5    6 1    
    10    5   25 1    
    11    5   66 1    
    12    6    7 1    
    13    6   67 1    
    14    6   68 1    
    15    7    8 1    
    16    8    9 1    
    17    8   69 1    
    18    8   70 1    
    19    9   10 ar   
    20    9   14 ar   
    21   10   11 ar   
    22   10   71 1    
    23   11   12 ar   
    24   11   61 1    
    25   12   13 ar   
    26   12   72 1    
    27   13   14 ar   
    28   13   15 1    
    29   14   73 1    
    30   15   16 1    
    31   15   74 1    
    32   15   75 1    
    33   16   17 1    
    34   17   18 1    
    35   17   76 1    
    36   17   77 1    
    37   18   19 1    
    38   18   27 1    
    39   18   78 1    
    40   19   20 am   BACKBONE|DICT|INTERRES
    41   19   79 1    
    42   20   21 2    
    43   20   22 1    
    44   22   23 1    
    45   22   24 1    
    46   22   80 1    
    47   23   81 1    
    48   23   82 1    
    49   23   83 1    
    50   24   25 am   BACKBONE|DICT|INTERRES
    51   24   84 1    
    52   25   26 2    
    53   27   28 2    
    54   27   29 am   BACKBONE|DICT|INTERRES
    55   29   30 1    
    56   29   85 1    
    57   30   31 1    
    58   30   32 1    
    59   30   86 1    
    60   31   87 1    
    61   31   88 1    
    62   31   89 1    
    63   32   33 2    
    64   32   34 am   BACKBONE|DICT|INTERRES
    65   34   35 1    
    66   34   90 1    
    67   35   36 1    
    68   35   37 1    
    69   35   91 1    
    70   36   92 1    
    71   36   93 1    
    72   36   94 1    
    73   37   38 2    
    74   37   39 am   BACKBONE|DICT|INTERRES
    75   39   40 1    
    76   39   95 1    
    77   40   41 1    
    78   40   42 1    
    79   40   96 1    
    80   41   97 1    
    81   41   98 1    
    82   41   99 1    
    83   42   43 2    
    84   42   44 am   BACKBONE|DICT|INTERRES
    85   44   45 1    
    86   44  100 1    
    87   45   46 1    
    88   45   47 1    
    89   45  101 1    
    90   46  102 1    
    91   46  103 1    
    92   46  104 1    
    93   47   48 2    
    94   47   49 am   BACKBONE|DICT|INTERRES
    95   49   50 1    
    96   49  105 1    
    97   50   51 1    
    98   50   52 1    
    99   50  106 1    
   100   51  107 1    
   101   51  108 1    
   102   51  109 1    
   103   52   53 2    
   104   52   54 am   BACKBONE|DICT|INTERRES
   105   54   55 1    
   106   54  110 1    
   107   55   56 1    
   108   55   59 1    
   109   55  111 1    
   110   56   57 am   BACKBONE|DICT|INTERRES
   111   56   58 2    
   112   57  112 1    
   113   57  113 1    
   114   59   60 1    
   115   59  114 1    
   116   59  115 1    
   117   60   61 1    
   118   61  116 1    
   119   61  117 1    
@<TRIPOS>SUBSTRUCTURE
     1 UNK         1 GROUP             0       ****    0 ROOT    
