@<TRIPOS>MOLECULE
3R8
117   119    1
SMALL
USER_CHARGES


@<TRIPOS>ATOM
      1 CA         21.1420  -21.7767  -45.6376 C.3       0 UNK        -0.2013 
      2 C          21.1948  -22.9152  -44.6302 C.2       0 UNK         0.4866 
      3 O          21.2430  -22.6656  -43.4258 O.2       0 UNK        -0.5176 
      4 N          21.1897  -24.1644  -45.1134 N.am      1 UNK        -0.4884 
      5 CA         21.2006  -25.3809  -44.2925 C.3       1 UNK         0.0853 
      6 C6         21.5931  -26.6358  -45.1148 C.3       10 UNK        -0.0849 
      7 S7         20.5943  -26.8793  -46.6256 S.3       10 UNK        -0.2776 
      8 C8         21.1611  -28.5214  -47.1734 C.3       10 UNK         0.0316 
      9 C9         20.4745  -29.6374  -46.4005 C.ar      10 UNK        -0.0863 
     10 C10        21.1751  -30.3872  -45.4503 C.ar      10 UNK        -0.1009 
     11 C11        20.5303  -31.4039  -44.7381 C.ar      10 UNK        -0.0712 
     12 C12        19.1807  -31.6733  -44.9849 C.ar      10 UNK        -0.0894 
     13 C13        18.4668  -30.9140  -45.9163 C.ar      10 UNK        -0.0745 
     14 C14        19.1244  -29.9124  -46.6351 C.ar      10 UNK        -0.0972 
     15 C15        16.9727  -31.1284  -46.1037 C.3       10 UNK         0.0209 
     16 S16        16.0137  -29.7272  -45.4358 S.3       10 UNK        -0.2568 
     17 C17        16.3029  -29.8744  -43.6366 C.3       10 UNK        -0.0983 
     18 CA         17.5689  -29.1200  -43.1358 C.3       3 UNK         0.0876 
     19 N          17.6446  -27.7236  -43.5721 N.am      3 UNK        -0.4424 
     20 C          16.9163  -26.6876  -43.1375 C.2       2 UNK         0.4918 
     21 O          15.9498  -26.7980  -42.3822 O.2       2 UNK        -0.4875 
     22 CA         17.3715  -25.2822  -43.5990 C.3       2 UNK         0.0481 
     23 CB         17.2000  -24.2372  -42.4771 C.3       2 UNK        -0.1831 
     24 N          18.7438  -25.2137  -44.1355 N.am      2 UNK        -0.4498 
     25 C          19.8797  -25.5957  -43.5262 C.2       1 UNK         0.5027 
     26 O          19.9091  -26.1278  -42.4163 O.2       1 UNK        -0.4969 
     27 C          17.8240  -29.2986  -41.6188 C.2       3 UNK         0.5005 
     28 O          17.2416  -30.1960  -41.0057 O.2       3 UNK        -0.5279 
     29 N          18.6865  -28.4520  -41.0336 N.am      4 UNK        -0.4463 
     30 CA         19.0018  -28.4573  -39.6007 C.3       4 UNK         0.0283 
     31 CB         18.0013  -27.5627  -38.8474 C.3       4 UNK        -0.1875 
     32 C          20.4449  -28.0308  -39.2920 C.2       4 UNK         0.4949 
     33 O          21.0154  -28.5291  -38.3218 O.2       4 UNK        -0.5039 
     34 N          21.0086  -27.1234  -40.0963 N.am      5 UNK        -0.4663 
     35 CA         22.3652  -26.5938  -39.9678 C.3       5 UNK         0.0242 
     36 CB         22.2849  -25.0549  -40.0340 C.3       5 UNK        -0.1982 
     37 C          23.2731  -27.1780  -41.0653 C.2       5 UNK         0.5017 
     38 O          22.9165  -28.1767  -41.6986 O.2       5 UNK        -0.5012 
     39 N          24.4429  -26.5501  -41.2606 N.am      6 UNK        -0.4439 
     40 CA         25.5110  -26.9266  -42.1935 C.3       6 UNK         0.0297 
     41 CB         25.0470  -26.7777  -43.6606 C.3       6 UNK        -0.2006 
     42 C          26.0688  -28.3182  -41.8476 C.2       6 UNK         0.4892 
     43 O          26.8045  -28.4385  -40.8672 O.2       6 UNK        -0.5089 
     44 N          25.6872  -29.3390  -42.6268 N.am      7 UNK        -0.4243 
     45 CA         25.9950  -30.7471  -42.3693 C.3       7 UNK         0.0196 
     46 CB         25.6538  -31.5734  -43.6211 C.3       7 UNK        -0.2007 
     47 C          25.2655  -31.3165  -41.1381 C.2       7 UNK         0.5020 
     48 O          25.7442  -32.2970  -40.5687 O.2       7 UNK        -0.5147 
     49 N          24.1225  -30.7139  -40.7652 N.am      8 UNK        -0.4734 
     50 CA         23.2476  -31.0819  -39.6400 C.3       8 UNK         0.0238 
     51 CB         23.9465  -30.8056  -38.2928 C.3       8 UNK        -0.1912 
     52 C          22.6784  -32.5133  -39.7390 C.2       8 UNK         0.5038 
     53 O          22.4084  -33.1476  -38.7183 O.2       8 UNK        -0.5046 
     54 N          22.5115  -32.9870  -40.9789 N.am      9 UNK        -0.4200 
     55 CA         22.0280  -34.3214  -41.3566 C.3       9 UNK         0.0839 
     56 C          20.5226  -34.6217  -41.0875 C.2       9 UNK         0.5513 
     57 N          19.7293  -33.6810  -40.5897 N.am      9 UNK        -0.7519 
     58 O          20.0695  -35.7387  -41.3229 O.2       9 UNK        -0.4960 
     59 C59        22.4804  -34.7021  -42.7960 C.3       10 UNK        -0.0876 
     60 S60        21.7199  -33.8480  -44.2347 S.3       10 UNK        -0.2414 
     61 C61        21.2676  -32.1808  -43.6617 C.3       10 UNK         0.0169 
     62 H62        22.0210  -21.1415  -45.5320 H         1 UNK         0.0903 
     63 H63        21.1084  -22.1410  -46.6642 H         1 UNK         0.0903 
     64 H64        20.2568  -21.1650  -45.4657 H         1 UNK         0.0903 
     65 H65        21.1534  -24.3186  -46.1122 H         1 UNK         0.3096 
     66 H66        21.9695  -25.2464  -43.5279 H         1 UNK         0.1121 
     67 H67        22.6329  -26.5434  -45.4299 H         1 UNK         0.0849 
     68 H68        21.5491  -27.5342  -44.4948 H         1 UNK         0.0849 
     69 H69        22.2465  -28.5882  -47.0837 H         1 UNK         0.0865 
     70 H70        20.9373  -28.6345  -48.2352 H         1 UNK         0.0865 
     71 H71        22.2170  -30.1721  -45.2564 H         1 UNK         0.1346 
     72 H72        18.6784  -32.4464  -44.4191 H         1 UNK         0.1412 
     73 H73        18.5731  -29.3187  -47.3521 H         1 UNK         0.1426 
     74 H74        16.6439  -32.0551  -45.6306 H         1 UNK         0.0716 
     75 H75        16.7554  -31.2316  -47.1677 H         1 UNK         0.0716 
     76 H76        16.3632  -30.9349  -43.3855 H         1 UNK         0.0695 
     77 H77        15.4165  -29.4936  -43.1263 H         1 UNK         0.0695 
     78 H78        18.4376  -29.5857  -43.5915 H         1 UNK         0.0983 
     79 H79        18.3931  -27.5169  -44.2172 H         1 UNK         0.3095 
     80 H80        16.7096  -25.0037  -44.4200 H         1 UNK         0.0454 
     81 H81        17.5037  -23.2445  -42.8091 H         1 UNK         0.0851 
     82 H82        17.7916  -24.4909  -41.5967 H         1 UNK         0.0851 
     83 H83        16.1591  -24.1652  -42.1596 H         1 UNK         0.0851 
     84 H84        18.8315  -24.8211  -45.0629 H         1 UNK         0.2976 
     85 H85        19.1246  -27.7324  -41.6003 H         1 UNK         0.3116 
     86 H86        18.9023  -29.4760  -39.2191 H         1 UNK         0.0646 
     87 H87        18.2213  -27.5405  -37.7792 H         1 UNK         0.0847 
     88 H88        16.9802  -27.9275  -38.9598 H         1 UNK         0.0847 
     89 H89        18.0307  -26.5347  -39.2106 H         1 UNK         0.0847 
     90 H90        20.4997  -26.7778  -40.9070 H         1 UNK         0.3040 
     91 H91        22.7945  -26.8795  -39.0050 H         1 UNK         0.1015 
     92 H92        21.5675  -24.6688  -39.3093 H         1 UNK         0.0786 
     93 H93        21.9751  -24.7059  -41.0200 H         1 UNK         0.0786 
     94 H94        23.2429  -24.5882  -39.8036 H         1 UNK         0.0786 
     95 H95        24.6562  -25.7631  -40.6637 H         1 UNK         0.3172 
     96 H96        26.3264  -26.2188  -42.0357 H         1 UNK         0.0595 
     97 H97        24.2112  -27.4329  -43.9028 H         1 UNK         0.0839 
     98 H98        25.8583  -27.0090  -44.3524 H         1 UNK         0.0839 
     99 H99        24.7334  -25.7547  -43.8684 H         1 UNK         0.0839 
    100 H100       25.0664  -29.1405  -43.3975 H         1 UNK         0.2998 
    101 H101       27.0677  -30.8320  -42.1820 H         1 UNK         0.0822 
    102 H102       24.5969  -31.5037  -43.8799 H         1 UNK         0.0787 
    103 H103       26.2326  -31.2428  -44.4838 H         1 UNK         0.0787 
    104 H104       25.8818  -32.6292  -43.4667 H         1 UNK         0.0787 
    105 H105       23.8186  -29.8995  -41.2935 H         1 UNK         0.3055 
    106 H106       22.3847  -30.4178  -39.7018 H         1 UNK         0.1106 
    107 H107       23.2548  -30.9362  -37.4596 H         1 UNK         0.0828 
    108 H108       24.7885  -31.4782  -38.1270 H         1 UNK         0.0828 
    109 H109       24.3175  -29.7819  -38.2435 H         1 UNK         0.0828 
    110 H110       22.7779  -32.3866  -41.7427 H         1 UNK         0.2931 
    111 H111       22.5545  -35.0101  -40.6928 H         1 UNK         0.0412 
    112 H112       20.0938  -32.7738  -40.3522 H         1 UNK         0.3472 
    113 H113       18.7601  -33.8961  -40.4163 H         1 UNK         0.3472 
    114 H114       23.5606  -34.5687  -42.8748 H         1 UNK         0.0970 
    115 H115       22.3253  -35.7721  -42.9465 H         1 UNK         0.0970 
    116 H116       22.1658  -31.6419  -43.3589 H         1 UNK         0.0612 
    117 H117       20.6202  -32.2431  -42.7883 H         1 UNK         0.0612 
@<TRIPOS>BOND
     1    1    2 1    
     2    1   62 1    
     3    1   63 1    
     4    1   64 1    
     5    2    3 2    
     6    2    4 am   BACKBONE|DICT|INTERRES
     7    4    5 1    
     8    4   65 1    
     9    5    6 1    
    10    5   25 1    
    11    5   66 1    
    12    6    7 1    
    13    6   67 1    
    14    6   68 1    
    15    7    8 1    
    16    8    9 1    
    17    8   69 1    
    18    8   70 1    
    19    9   10 ar   
    20    9   14 ar   
    21   10   11 ar   
    22   10   71 1    
    23   11   12 ar   
    24   11   61 1    
    25   12   13 ar   
    26   12   72 1    
    27   13   14 ar   
    28   13   15 1    
    29   14   73 1    
    30   15   16 1    
    31   15   74 1    
    32   15   75 1    
    33   16   17 1    
    34   17   18 1    
    35   17   76 1    
    36   17   77 1    
    37   18   19 1    
    38   18   27 1    
    39   18   78 1    
    40   19   20 am   BACKBONE|DICT|INTERRES
    41   19   79 1    
    42   20   21 2    
    43   20   22 1    
    44   22   23 1    
    45   22   24 1    
    46   22   80 1    
    47   23   81 1    
    48   23   82 1    
    49   23   83 1    
    50   24   25 am   BACKBONE|DICT|INTERRES
    51   24   84 1    
    52   25   26 2    
    53   27   28 2    
    54   27   29 am   BACKBONE|DICT|INTERRES
    55   29   30 1    
    56   29   85 1    
    57   30   31 1    
    58   30   32 1    
    59   30   86 1    
    60   31   87 1    
    61   31   88 1    
    62   31   89 1    
    63   32   33 2    
    64   32   34 am   BACKBONE|DICT|INTERRES
    65   34   35 1    
    66   34   90 1    
    67   35   36 1    
    68   35   37 1    
    69   35   91 1    
    70   36   92 1    
    71   36   93 1    
    72   36   94 1    
    73   37   38 2    
    74   37   39 am   BACKBONE|DICT|INTERRES
    75   39   40 1    
    76   39   95 1    
    77   40   41 1    
    78   40   42 1    
    79   40   96 1    
    80   41   97 1    
    81   41   98 1    
    82   41   99 1    
    83   42   43 2    
    84   42   44 am   BACKBONE|DICT|INTERRES
    85   44   45 1    
    86   44  100 1    
    87   45   46 1    
    88   45   47 1    
    89   45  101 1    
    90   46  102 1    
    91   46  103 1    
    92   46  104 1    
    93   47   48 2    
    94   47   49 am   BACKBONE|DICT|INTERRES
    95   49   50 1    
    96   49  105 1    
    97   50   51 1    
    98   50   52 1    
    99   50  106 1    
   100   51  107 1    
   101   51  108 1    
   102   51  109 1    
   103   52   53 2    
   104   52   54 am   BACKBONE|DICT|INTERRES
   105   54   55 1    
   106   54  110 1    
   107   55   56 1    
   108   55   59 1    
   109   55  111 1    
   110   56   57 am   BACKBONE|DICT|INTERRES
   111   56   58 2    
   112   57  112 1    
   113   57  113 1    
   114   59   60 1    
   115   59  114 1    
   116   59  115 1    
   117   60   61 1    
   118   61  116 1    
   119   61  117 1    
@<TRIPOS>SUBSTRUCTURE
     1 UNK         1 GROUP             0       ****    0 ROOT    
