@<TRIPOS>MOLECULE
3R8
117   119    1
SMALL
USER_CHARGES


@<TRIPOS>ATOM
      1 CA         18.7212  -21.9416  -46.4308 C.3       0 UNK        -0.2013 
      2 C          18.7888  -23.2601  -47.1865 C.2       0 UNK         0.4866 
      3 O          19.5290  -23.3695  -48.1638 O.2       0 UNK        -0.5176 
      4 N          18.0263  -24.2660  -46.7387 N.am      1 UNK        -0.4884 
      5 CA         17.9570  -25.6045  -47.3433 C.3       1 UNK         0.0853 
      6 C6         16.5748  -26.2629  -47.0939 C.3       10 UNK        -0.0849 
      7 S7         16.2026  -26.5623  -45.3297 S.3       10 UNK        -0.2776 
      8 C8         16.3640  -28.3823  -45.2639 C.3       10 UNK         0.0316 
      9 C9         16.4806  -28.9974  -43.8687 C.ar      10 UNK        -0.0863 
     10 C10        16.6171  -30.3858  -43.7773 C.ar      10 UNK        -0.1009 
     11 C11        16.7962  -31.0149  -42.5414 C.ar      10 UNK        -0.0712 
     12 C12        16.8117  -30.2417  -41.3772 C.ar      10 UNK        -0.0894 
     13 C13        16.6726  -28.8523  -41.4485 C.ar      10 UNK        -0.0745 
     14 C14        16.4976  -28.2378  -42.6914 C.ar      10 UNK        -0.0972 
     15 C15        16.7632  -28.0050  -40.1889 C.3       10 UNK         0.0209 
     16 S16        18.4697  -27.9323  -39.5558 S.3       10 UNK        -0.2568 
     17 C17        19.3811  -27.1439  -40.9347 C.3       10 UNK        -0.0983 
     18 CA         19.9826  -28.1095  -41.9996 C.3       3 UNK         0.0876 
     19 N          20.4623  -27.3310  -43.1425 N.am      3 UNK        -0.4424 
     20 C          20.6590  -27.7933  -44.3820 C.2       2 UNK         0.4918 
     21 O          20.4557  -28.9580  -44.7260 O.2       2 UNK        -0.4875 
     22 CA         21.1352  -26.7400  -45.3996 C.3       2 UNK         0.0481 
     23 CB         22.1158  -27.2980  -46.4521 C.3       2 UNK        -0.1831 
     24 N          19.9935  -26.0584  -46.0195 N.am      2 UNK        -0.4498 
     25 C          19.1310  -26.5291  -46.9363 C.2       1 UNK         0.5027 
     26 O          19.2201  -27.6373  -47.4662 O.2       1 UNK        -0.4969 
     27 C          21.0797  -29.0317  -41.4206 C.2       3 UNK         0.5005 
     28 O          22.2655  -28.8947  -41.7354 O.2       3 UNK        -0.5279 
     29 N          20.6665  -29.9308  -40.5174 N.am      4 UNK        -0.4463 
     30 CA         21.5379  -30.7246  -39.6449 C.3       4 UNK         0.0283 
     31 CB         20.6931  -31.7436  -38.8640 C.3       4 UNK        -0.1875 
     32 C          22.3545  -29.8539  -38.6724 C.2       4 UNK         0.4949 
     33 O          23.4455  -30.2571  -38.2754 O.2       4 UNK        -0.5039 
     34 N          21.8561  -28.6469  -38.3629 N.am      5 UNK        -0.4663 
     35 CA         22.5768  -27.5990  -37.6321 C.3       5 UNK         0.0242 
     36 CB         21.6068  -26.4477  -37.3218 C.3       5 UNK        -0.1982 
     37 C          23.8193  -27.0717  -38.3789 C.2       5 UNK         0.5017 
     38 O          24.7482  -26.5915  -37.7297 O.2       5 UNK        -0.5012 
     39 N          23.8278  -27.1974  -39.7147 N.am      6 UNK        -0.4439 
     40 CA         24.9717  -26.9161  -40.5859 C.3       6 UNK         0.0297 
     41 CB         24.4593  -26.2369  -41.8699 C.3       6 UNK        -0.2006 
     42 C          25.7719  -28.1928  -40.9194 C.2       6 UNK         0.4892 
     43 O          26.6843  -28.1230  -41.7431 O.2       6 UNK        -0.5089 
     44 N          25.4088  -29.3306  -40.3023 N.am      7 UNK        -0.4243 
     45 CA         25.9446  -30.6841  -40.4979 C.3       7 UNK         0.0196 
     46 CB         27.4328  -30.7544  -40.0933 C.3       7 UNK        -0.2007 
     47 C          25.6827  -31.2699  -41.9002 C.2       7 UNK         0.5020 
     48 O          26.3544  -32.2281  -42.2856 O.2       7 UNK        -0.5147 
     49 N          24.7225  -30.7012  -42.6421 N.am      8 UNK        -0.4734 
     50 CA         24.3880  -31.1228  -44.0019 C.3       8 UNK         0.0238 
     51 CB         23.9408  -29.9020  -44.8154 C.3       8 UNK        -0.1912 
     52 C          23.3170  -32.2206  -44.0068 C.2       8 UNK         0.5038 
     53 O          23.5198  -33.2557  -44.6431 O.2       8 UNK        -0.5046 
     54 N          22.2051  -31.9775  -43.3010 N.am      9 UNK        -0.4200 
     55 CA         21.1122  -32.9456  -43.1237 C.3       9 UNK         0.0839 
     56 C          21.4435  -34.0217  -42.0505 C.2       9 UNK         0.5513 
     57 N          20.6960  -35.1154  -42.0213 N.am      9 UNK        -0.7519 
     58 O          22.3488  -33.8696  -41.2329 O.2       9 UNK        -0.4960 
     59 C59        19.7607  -32.2280  -42.8573 C.3       10 UNK        -0.0876 
     60 S60        18.3289  -33.1352  -43.5300 S.3       10 UNK        -0.2414 
     61 C61        16.9790  -32.5271  -42.4631 C.3       10 UNK         0.0169 
     62 H62        18.0322  -21.9889  -45.5876 H         1 UNK         0.0903 
     63 H63        19.7068  -21.6763  -46.0492 H         1 UNK         0.0903 
     64 H64        18.3880  -21.1454  -47.0959 H         1 UNK         0.0903 
     65 H65        17.4332  -24.1285  -45.9310 H         1 UNK         0.3096 
     66 H66        18.0521  -25.4822  -48.4251 H         1 UNK         0.1121 
     67 H67        16.4896  -27.1946  -47.6566 H         1 UNK         0.0849 
     68 H68        15.7903  -25.6184  -47.4938 H         1 UNK         0.0849 
     69 H69        15.5089  -28.8240  -45.7777 H         1 UNK         0.0865 
     70 H70        17.2509  -28.6758  -45.8276 H         1 UNK         0.0865 
     71 H71        16.6114  -30.9835  -44.6790 H         1 UNK         0.1346 
     72 H72        16.9525  -30.7151  -40.4149 H         1 UNK         0.1412 
     73 H73        16.4080  -27.1620  -42.7288 H         1 UNK         0.1426 
     74 H74        16.1164  -28.4289  -39.4196 H         1 UNK         0.0716 
     75 H75        16.4015  -26.9915  -40.3695 H         1 UNK         0.0716 
     76 H76        18.6972  -26.4443  -41.4187 H         1 UNK         0.0695 
     77 H77        20.1695  -26.5247  -40.5028 H         1 UNK         0.0695 
     78 H78        19.1971  -28.7660  -42.3738 H         1 UNK         0.0983 
     79 H79        20.6811  -26.3647  -42.9526 H         1 UNK         0.3095 
     80 H80        21.6763  -25.9675  -44.8504 H         1 UNK         0.0454 
     81 H81        23.0695  -27.5502  -45.9915 H         1 UNK         0.0851 
     82 H82        22.3242  -26.5636  -47.2299 H         1 UNK         0.0851 
     83 H83        21.7379  -28.1991  -46.9361 H         1 UNK         0.0851 
     84 H84        19.7967  -25.1337  -45.6635 H         1 UNK         0.2976 
     85 H85        19.6823  -29.9317  -40.2819 H         1 UNK         0.3116 
     86 H86        22.2461  -31.2675  -40.2738 H         1 UNK         0.0646 
     87 H87        19.9482  -31.2560  -38.2338 H         1 UNK         0.0847 
     88 H88        20.1733  -32.4317  -39.5294 H         1 UNK         0.0847 
     89 H89        21.3237  -32.3503  -38.2124 H         1 UNK         0.0847 
     90 H90        20.9336  -28.4091  -38.7002 H         1 UNK         0.3040 
     91 H91        22.9220  -28.0257  -36.6876 H         1 UNK         0.1015 
     92 H92        22.1018  -25.6657  -36.7441 H         1 UNK         0.0786 
     93 H93        20.7558  -26.7925  -36.7339 H         1 UNK         0.0786 
     94 H94        21.2211  -25.9859  -38.2314 H         1 UNK         0.0786 
     95 H95        23.0349  -27.6353  -40.1683 H         1 UNK         0.3172 
     96 H96        25.6562  -26.2256  -40.0894 H         1 UNK         0.0595 
     97 H97        23.8283  -26.9022  -42.4598 H         1 UNK         0.0839 
     98 H98        25.2895  -25.9308  -42.5078 H         1 UNK         0.0839 
     99 H99        23.8825  -25.3405  -41.6423 H         1 UNK         0.0839 
    100 H100       24.6598  -29.2800  -39.6213 H         1 UNK         0.2998 
    101 H101       25.3926  -31.3251  -39.8093 H         1 UNK         0.0822 
    102 H102       27.7868  -31.7859  -40.0782 H         1 UNK         0.0787 
    103 H103       27.5922  -30.3456  -39.0955 H         1 UNK         0.0787 
    104 H104       28.0687  -30.2048  -40.7879 H         1 UNK         0.0787 
    105 H105       24.1874  -29.9351  -42.2503 H         1 UNK         0.3055 
    106 H106       25.2776  -31.5313  -44.4877 H         1 UNK         0.1106 
    107 H107       23.1048  -29.3917  -44.3403 H         1 UNK         0.0828 
    108 H108       24.7529  -29.1826  -44.9219 H         1 UNK         0.0828 
    109 H109       23.6251  -30.1900  -45.8191 H         1 UNK         0.0828 
    110 H110       22.1411  -31.1137  -42.7828 H         1 UNK         0.2931 
    111 H111       21.0194  -33.4758  -44.0741 H         1 UNK         0.0412 
    112 H112       20.8860  -35.8248  -41.3308 H         1 UNK         0.3472 
    113 H113       19.9319  -35.2331  -42.6695 H         1 UNK         0.3472 
    114 H114       19.6089  -32.0505  -41.7936 H         1 UNK         0.0970 
    115 H115       19.7508  -31.2461  -43.3334 H         1 UNK         0.0970 
    116 H116       17.1739  -32.8443  -41.4374 H         1 UNK         0.0612 
    117 H117       16.0487  -33.0101  -42.7646 H         1 UNK         0.0612 
@<TRIPOS>BOND
     1    1    2 1    
     2    1   62 1    
     3    1   63 1    
     4    1   64 1    
     5    2    3 2    
     6    2    4 am   BACKBONE|DICT|INTERRES
     7    4    5 1    
     8    4   65 1    
     9    5    6 1    
    10    5   25 1    
    11    5   66 1    
    12    6    7 1    
    13    6   67 1    
    14    6   68 1    
    15    7    8 1    
    16    8    9 1    
    17    8   69 1    
    18    8   70 1    
    19    9   10 ar   
    20    9   14 ar   
    21   10   11 ar   
    22   10   71 1    
    23   11   12 ar   
    24   11   61 1    
    25   12   13 ar   
    26   12   72 1    
    27   13   14 ar   
    28   13   15 1    
    29   14   73 1    
    30   15   16 1    
    31   15   74 1    
    32   15   75 1    
    33   16   17 1    
    34   17   18 1    
    35   17   76 1    
    36   17   77 1    
    37   18   19 1    
    38   18   27 1    
    39   18   78 1    
    40   19   20 am   BACKBONE|DICT|INTERRES
    41   19   79 1    
    42   20   21 2    
    43   20   22 1    
    44   22   23 1    
    45   22   24 1    
    46   22   80 1    
    47   23   81 1    
    48   23   82 1    
    49   23   83 1    
    50   24   25 am   BACKBONE|DICT|INTERRES
    51   24   84 1    
    52   25   26 2    
    53   27   28 2    
    54   27   29 am   BACKBONE|DICT|INTERRES
    55   29   30 1    
    56   29   85 1    
    57   30   31 1    
    58   30   32 1    
    59   30   86 1    
    60   31   87 1    
    61   31   88 1    
    62   31   89 1    
    63   32   33 2    
    64   32   34 am   BACKBONE|DICT|INTERRES
    65   34   35 1    
    66   34   90 1    
    67   35   36 1    
    68   35   37 1    
    69   35   91 1    
    70   36   92 1    
    71   36   93 1    
    72   36   94 1    
    73   37   38 2    
    74   37   39 am   BACKBONE|DICT|INTERRES
    75   39   40 1    
    76   39   95 1    
    77   40   41 1    
    78   40   42 1    
    79   40   96 1    
    80   41   97 1    
    81   41   98 1    
    82   41   99 1    
    83   42   43 2    
    84   42   44 am   BACKBONE|DICT|INTERRES
    85   44   45 1    
    86   44  100 1    
    87   45   46 1    
    88   45   47 1    
    89   45  101 1    
    90   46  102 1    
    91   46  103 1    
    92   46  104 1    
    93   47   48 2    
    94   47   49 am   BACKBONE|DICT|INTERRES
    95   49   50 1    
    96   49  105 1    
    97   50   51 1    
    98   50   52 1    
    99   50  106 1    
   100   51  107 1    
   101   51  108 1    
   102   51  109 1    
   103   52   53 2    
   104   52   54 am   BACKBONE|DICT|INTERRES
   105   54   55 1    
   106   54  110 1    
   107   55   56 1    
   108   55   59 1    
   109   55  111 1    
   110   56   57 am   BACKBONE|DICT|INTERRES
   111   56   58 2    
   112   57  112 1    
   113   57  113 1    
   114   59   60 1    
   115   59  114 1    
   116   59  115 1    
   117   60   61 1    
   118   61  116 1    
   119   61  117 1    
@<TRIPOS>SUBSTRUCTURE
     1 UNK         1 GROUP             0       ****    0 ROOT    
