@<TRIPOS>MOLECULE
3R8
117   119    1
SMALL
USER_CHARGES


@<TRIPOS>ATOM
      1 CA         13.7207  -29.6895  -46.7388 C.3       0 UNK        -0.2013 
      2 C          14.9361  -29.1552  -45.9969 C.2       0 UNK         0.4866 
      3 O          15.9091  -29.8854  -45.8064 O.2       0 UNK        -0.5176 
      4 N          14.8991  -27.8809  -45.5875 N.am      1 UNK        -0.4884 
      5 CA         15.9516  -27.1859  -44.8316 C.3       1 UNK         0.0853 
      6 C6         15.3694  -26.0110  -44.0033 C.3       10 UNK        -0.0849 
      7 S7         14.3114  -26.6333  -42.6526 S.3       10 UNK        -0.2776 
      8 C8         15.2592  -26.1643  -41.1636 C.3       10 UNK         0.0316 
      9 C9         16.7150  -26.6233  -41.1903 C.ar      10 UNK        -0.0863 
     10 C10        17.0369  -27.9777  -41.3296 C.ar      10 UNK        -0.1009 
     11 C11        18.3726  -28.3905  -41.3330 C.ar      10 UNK        -0.0712 
     12 C12        19.3851  -27.4436  -41.1617 C.ar      10 UNK        -0.0894 
     13 C13        19.0845  -26.0827  -41.0497 C.ar      10 UNK        -0.0745 
     14 C14        17.7441  -25.6835  -41.0599 C.ar      10 UNK        -0.0972 
     15 C15        20.1822  -25.0310  -40.8884 C.3       10 UNK         0.0209 
     16 S16        21.7111  -25.3686  -41.8330 S.3       10 UNK        -0.2568 
     17 C17        21.1298  -25.2880  -43.5598 C.3       10 UNK        -0.0983 
     18 CA         21.2240  -26.6580  -44.2787 C.3       3 UNK         0.0876 
     19 N          20.3121  -26.7137  -45.4231 N.am      3 UNK        -0.4424 
     20 C          20.1292  -27.7434  -46.2616 C.2       2 UNK         0.4918 
     21 O          20.7844  -28.7863  -46.2471 O.2       2 UNK        -0.4875 
     22 CA         18.9406  -27.5994  -47.2281 C.3       2 UNK         0.0481 
     23 CB         18.9516  -28.6568  -48.3469 C.3       2 UNK        -0.1831 
     24 N          17.6953  -27.7221  -46.4717 N.am      2 UNK        -0.4498 
     25 C          17.1296  -26.7584  -45.7349 C.2       1 UNK         0.5027 
     26 O          17.5265  -25.5907  -45.7388 O.2       1 UNK        -0.4969 
     27 C          22.6742  -27.0202  -44.6630 C.2       3 UNK         0.5005 
     28 O          23.2740  -26.3395  -45.4997 O.2       3 UNK        -0.5279 
     29 N          23.1928  -28.0935  -44.0577 N.am      4 UNK        -0.4463 
     30 CA         24.4998  -28.6869  -44.3143 C.3       4 UNK         0.0283 
     31 CB         24.4754  -29.4496  -45.6542 C.3       4 UNK        -0.1875 
     32 C          24.8351  -29.6341  -43.1565 C.2       4 UNK         0.4949 
     33 O          23.9605  -29.9271  -42.3350 O.2       4 UNK        -0.5039 
     34 N          26.0913  -30.1023  -43.1232 N.am      5 UNK        -0.4663 
     35 CA         26.6417  -31.0858  -42.1781 C.3       5 UNK         0.0242 
     36 CB         26.0156  -32.4749  -42.4316 C.3       5 UNK        -0.1982 
     37 C          26.5133  -30.6370  -40.7103 C.2       5 UNK         0.5017 
     38 O          25.9880  -31.3811  -39.8830 O.2       5 UNK        -0.5012 
     39 N          26.9436  -29.3968  -40.4304 N.am      6 UNK        -0.4439 
     40 CA         26.8250  -28.7021  -39.1379 C.3       6 UNK         0.0297 
     41 CB         27.7266  -29.3619  -38.0721 C.3       6 UNK        -0.2006 
     42 C          25.3593  -28.5497  -38.6751 C.2       6 UNK         0.4892 
     43 O          25.0674  -28.6780  -37.4851 O.2       6 UNK        -0.5089 
     44 N          24.4736  -28.2924  -39.6487 N.am      7 UNK        -0.4243 
     45 CA         23.0170  -28.1636  -39.5409 C.3       7 UNK         0.0196 
     46 CB         22.6169  -27.0012  -38.6069 C.3       7 UNK        -0.2007 
     47 C          22.2818  -29.4770  -39.2071 C.2       7 UNK         0.5020 
     48 O          21.1253  -29.4246  -38.7883 O.2       7 UNK        -0.5147 
     49 N          22.9275  -30.6324  -39.4194 N.am      8 UNK        -0.4734 
     50 CA         22.3003  -31.9491  -39.2716 C.3       8 UNK         0.0238 
     51 CB         23.3698  -32.9924  -38.9114 C.3       8 UNK        -0.1912 
     52 C          21.5358  -32.3886  -40.5320 C.2       8 UNK         0.5038 
     53 O          20.6553  -33.2416  -40.4174 O.2       8 UNK        -0.5046 
     54 N          21.8919  -31.8310  -41.7002 N.am      9 UNK        -0.4200 
     55 CA         21.3675  -32.1865  -43.0328 C.3       9 UNK         0.0839 
     56 C          21.7318  -33.6269  -43.5120 C.2       9 UNK         0.5513 
     57 N          22.6834  -34.3145  -42.8917 N.am      9 UNK        -0.7519 
     58 O          21.1704  -34.1216  -44.4862 O.2       9 UNK        -0.4960 
     59 C59        19.8545  -31.8582  -43.2063 C.3       10 UNK        -0.0876 
     60 S60        19.5247  -30.0673  -43.1714 S.3       10 UNK        -0.2414 
     61 C61        18.7376  -29.8510  -41.5471 C.3       10 UNK         0.0169 
     62 H62        12.9381  -28.9372  -46.8358 H         1 UNK         0.0903 
     63 H63        14.0050  -30.0148  -47.7391 H         1 UNK         0.0903 
     64 H64        13.3043  -30.5450  -46.2076 H         1 UNK         0.0903 
     65 H65        14.0786  -27.3263  -45.7878 H         1 UNK         0.3096 
     66 H66        16.3854  -27.8972  -44.1246 H         1 UNK         0.1121 
     67 H67        16.1614  -25.3946  -43.5746 H         1 UNK         0.0849 
     68 H68        14.7841  -25.3427  -44.6372 H         1 UNK         0.0849 
     69 H69        14.7712  -26.5932  -40.2874 H         1 UNK         0.0865 
     70 H70        15.1977  -25.0814  -41.0438 H         1 UNK         0.0865 
     71 H71        16.2462  -28.7060  -41.4487 H         1 UNK         0.1346 
     72 H72        20.4123  -27.7747  -41.1437 H         1 UNK         0.1412 
     73 H73        17.5010  -24.6346  -40.9559 H         1 UNK         0.1426 
     74 H74        20.4366  -24.9580  -39.8307 H         1 UNK         0.0716 
     75 H75        19.8115  -24.0475  -41.1817 H         1 UNK         0.0716 
     76 H76        21.6956  -24.5207  -44.0918 H         1 UNK         0.0695 
     77 H77        20.0958  -24.9388  -43.5535 H         1 UNK         0.0695 
     78 H78        20.8561  -27.4216  -43.5925 H         1 UNK         0.0983 
     79 H79        19.6789  -25.9298  -45.5197 H         1 UNK         0.3095 
     80 H80        18.9930  -26.6132  -47.6941 H         1 UNK         0.0454 
     81 H81        18.8733  -29.6696  -47.9493 H         1 UNK         0.0851 
     82 H82        19.8754  -28.6030  -48.9243 H         1 UNK         0.0851 
     83 H83        18.1255  -28.5061  -49.0418 H         1 UNK         0.0851 
     84 H84        17.3053  -28.6565  -46.3786 H         1 UNK         0.2976 
     85 H85        22.6582  -28.5928  -43.3572 H         1 UNK         0.3116 
     86 H86        25.2522  -27.8964  -44.3460 H         1 UNK         0.0646 
     87 H87        23.7232  -30.2399  -45.6501 H         1 UNK         0.0847 
     88 H88        25.4380  -29.9150  -45.8681 H         1 UNK         0.0847 
     89 H89        24.2508  -28.7853  -46.4887 H         1 UNK         0.0847 
     90 H90        26.7333  -29.7822  -43.8360 H         1 UNK         0.3040 
     91 H91        27.7110  -31.1633  -42.3824 H         1 UNK         0.1015 
     92 H92        24.9469  -32.4816  -42.2178 H         1 UNK         0.0786 
     93 H93        26.4782  -33.2345  -41.8001 H         1 UNK         0.0786 
     94 H94        26.1507  -32.7886  -43.4666 H         1 UNK         0.0786 
     95 H95        27.3470  -28.8585  -41.1855 H         1 UNK         0.3172 
     96 H96        27.1968  -27.6891  -39.2993 H         1 UNK         0.0595 
     97 H97        27.7414  -28.7728  -37.1542 H         1 UNK         0.0839 
     98 H98        28.7566  -29.4449  -38.4185 H         1 UNK         0.0839 
     99 H99        27.3791  -30.3615  -37.8087 H         1 UNK         0.0839 
    100 H100       24.8311  -28.2554  -40.5928 H         1 UNK         0.2998 
    101 H101       22.6848  -27.9012  -40.5451 H         1 UNK         0.0822 
    102 H102       21.5427  -26.8190  -38.6491 H         1 UNK         0.0787 
    103 H103       22.8661  -27.2100  -37.5665 H         1 UNK         0.0787 
    104 H104       23.1115  -26.0734  -38.8942 H         1 UNK         0.0787 
    105 H105       23.8851  -30.6125  -39.7517 H         1 UNK         0.3055 
    106 H106       21.5812  -31.9119  -38.4498 H         1 UNK         0.1106 
    107 H107       22.9115  -33.9555  -38.6830 H         1 UNK         0.0828 
    108 H108       24.0706  -33.1550  -39.7305 H         1 UNK         0.0828 
    109 H109       23.9432  -32.6895  -38.0350 H         1 UNK         0.0828 
    110 H110       22.6380  -31.1410  -41.7056 H         1 UNK         0.2931 
    111 H111       21.9130  -31.5422  -43.7237 H         1 UNK         0.0412 
    112 H112       23.1568  -33.9265  -42.0934 H         1 UNK         0.3472 
    113 H113       22.9166  -35.2385  -43.2200 H         1 UNK         0.3472 
    114 H114       19.4920  -32.2089  -44.1741 H         1 UNK         0.0970 
    115 H115       19.2471  -32.3733  -42.4614 H         1 UNK         0.0970 
    116 H116       19.4188  -30.1799  -40.7623 H         1 UNK         0.0612 
    117 H117       17.8527  -30.4860  -41.4857 H         1 UNK         0.0612 
@<TRIPOS>BOND
     1    1    2 1    
     2    1   62 1    
     3    1   63 1    
     4    1   64 1    
     5    2    3 2    
     6    2    4 am   BACKBONE|DICT|INTERRES
     7    4    5 1    
     8    4   65 1    
     9    5    6 1    
    10    5   25 1    
    11    5   66 1    
    12    6    7 1    
    13    6   67 1    
    14    6   68 1    
    15    7    8 1    
    16    8    9 1    
    17    8   69 1    
    18    8   70 1    
    19    9   10 ar   
    20    9   14 ar   
    21   10   11 ar   
    22   10   71 1    
    23   11   12 ar   
    24   11   61 1    
    25   12   13 ar   
    26   12   72 1    
    27   13   14 ar   
    28   13   15 1    
    29   14   73 1    
    30   15   16 1    
    31   15   74 1    
    32   15   75 1    
    33   16   17 1    
    34   17   18 1    
    35   17   76 1    
    36   17   77 1    
    37   18   19 1    
    38   18   27 1    
    39   18   78 1    
    40   19   20 am   BACKBONE|DICT|INTERRES
    41   19   79 1    
    42   20   21 2    
    43   20   22 1    
    44   22   23 1    
    45   22   24 1    
    46   22   80 1    
    47   23   81 1    
    48   23   82 1    
    49   23   83 1    
    50   24   25 am   BACKBONE|DICT|INTERRES
    51   24   84 1    
    52   25   26 2    
    53   27   28 2    
    54   27   29 am   BACKBONE|DICT|INTERRES
    55   29   30 1    
    56   29   85 1    
    57   30   31 1    
    58   30   32 1    
    59   30   86 1    
    60   31   87 1    
    61   31   88 1    
    62   31   89 1    
    63   32   33 2    
    64   32   34 am   BACKBONE|DICT|INTERRES
    65   34   35 1    
    66   34   90 1    
    67   35   36 1    
    68   35   37 1    
    69   35   91 1    
    70   36   92 1    
    71   36   93 1    
    72   36   94 1    
    73   37   38 2    
    74   37   39 am   BACKBONE|DICT|INTERRES
    75   39   40 1    
    76   39   95 1    
    77   40   41 1    
    78   40   42 1    
    79   40   96 1    
    80   41   97 1    
    81   41   98 1    
    82   41   99 1    
    83   42   43 2    
    84   42   44 am   BACKBONE|DICT|INTERRES
    85   44   45 1    
    86   44  100 1    
    87   45   46 1    
    88   45   47 1    
    89   45  101 1    
    90   46  102 1    
    91   46  103 1    
    92   46  104 1    
    93   47   48 2    
    94   47   49 am   BACKBONE|DICT|INTERRES
    95   49   50 1    
    96   49  105 1    
    97   50   51 1    
    98   50   52 1    
    99   50  106 1    
   100   51  107 1    
   101   51  108 1    
   102   51  109 1    
   103   52   53 2    
   104   52   54 am   BACKBONE|DICT|INTERRES
   105   54   55 1    
   106   54  110 1    
   107   55   56 1    
   108   55   59 1    
   109   55  111 1    
   110   56   57 am   BACKBONE|DICT|INTERRES
   111   56   58 2    
   112   57  112 1    
   113   57  113 1    
   114   59   60 1    
   115   59  114 1    
   116   59  115 1    
   117   60   61 1    
   118   61  116 1    
   119   61  117 1    
@<TRIPOS>SUBSTRUCTURE
     1 UNK         1 GROUP             0       ****    0 ROOT    
