@<TRIPOS>MOLECULE
3R8
117   119    1
SMALL
USER_CHARGES


@<TRIPOS>ATOM
      1 CA         16.3776  -22.3488  -47.3444 C.3       0 UNK        -0.2013 
      2 C          15.2688  -23.3093  -46.9216 C.2       0 UNK         0.4866 
      3 O          14.1657  -22.8596  -46.6161 O.2       0 UNK        -0.5176 
      4 N          15.4962  -24.6298  -46.9013 N.am      1 UNK        -0.4884 
      5 CA         16.7649  -25.3223  -47.1607 C.3       1 UNK         0.0853 
      6 C6         16.5098  -26.7887  -47.6042 C.3       10 UNK        -0.0849 
      7 S7         15.6812  -27.8272  -46.3471 S.3       10 UNK        -0.2776 
      8 C8         17.0445  -28.9537  -45.8890 C.3       10 UNK         0.0316 
      9 C9         16.9527  -29.5592  -44.4895 C.ar      10 UNK        -0.0863 
     10 C10        17.7107  -30.7002  -44.2105 C.ar      10 UNK        -0.1009 
     11 C11        17.7699  -31.2238  -42.9161 C.ar      10 UNK        -0.0712 
     12 C12        17.0269  -30.6238  -41.8972 C.ar      10 UNK        -0.0894 
     13 C13        16.2666  -29.4806  -42.1577 C.ar      10 UNK        -0.0745 
     14 C14        16.2225  -28.9599  -43.4546 C.ar      10 UNK        -0.0972 
     15 C15        15.5755  -28.7506  -41.0173 C.3       10 UNK         0.0209 
     16 S16        16.7867  -27.8703  -39.9750 S.3       10 UNK        -0.2568 
     17 C17        17.4943  -26.6516  -41.1397 C.3       10 UNK        -0.0983 
     18 CA         18.7519  -27.1639  -41.8904 C.3       3 UNK         0.0876 
     19 N          19.0482  -26.3281  -43.0531 N.am      3 UNK        -0.4424 
     20 C          19.8425  -26.6829  -44.0689 C.2       2 UNK         0.4918 
     21 O          20.3657  -27.7930  -44.1776 O.2       2 UNK        -0.4875 
     22 CA         20.0630  -25.6199  -45.1620 C.3       2 UNK         0.0481 
     23 CB         21.4168  -25.8046  -45.8717 C.3       2 UNK        -0.1831 
     24 N          18.9925  -25.6328  -46.1635 N.am      2 UNK        -0.4498 
     25 C          17.7359  -25.2118  -45.9590 C.2       1 UNK         0.5027 
     26 O          17.3471  -24.7391  -44.8867 O.2       1 UNK        -0.4969 
     27 C          19.9841  -27.2907  -40.9748 C.2       3 UNK         0.5005 
     28 O          20.7201  -26.3152  -40.7956 O.2       3 UNK        -0.5279 
     29 N          20.1803  -28.4968  -40.4229 N.am      4 UNK        -0.4463 
     30 CA         21.2946  -28.9572  -39.5862 C.3       4 UNK         0.0283 
     31 CB         21.4136  -28.1521  -38.2774 C.3       4 UNK        -0.1875 
     32 C          22.6312  -29.0214  -40.3408 C.2       4 UNK         0.4949 
     33 O          23.2128  -30.1017  -40.4299 O.2       4 UNK        -0.5039 
     34 N          23.0860  -27.8783  -40.8731 N.am      5 UNK        -0.4663 
     35 CA         24.2997  -27.6849  -41.6800 C.3       5 UNK         0.0242 
     36 CB         24.0899  -28.2726  -43.0912 C.3       5 UNK        -0.1982 
     37 C          25.5761  -28.2168  -40.9950 C.2       5 UNK         0.5017 
     38 O          26.3829  -28.8907  -41.6355 O.2       5 UNK        -0.5012 
     39 N          25.7046  -27.9271  -39.6901 N.am      6 UNK        -0.4439 
     40 CA         26.7358  -28.4264  -38.7681 C.3       6 UNK         0.0297 
     41 CB         28.1385  -27.9162  -39.1648 C.3       6 UNK        -0.2006 
     42 C          26.6765  -29.9583  -38.5802 C.2       6 UNK         0.4892 
     43 O          27.7183  -30.6138  -38.5238 O.2       6 UNK        -0.5089 
     44 N          25.4452  -30.4836  -38.4784 N.am      7 UNK        -0.4243 
     45 CA         25.0709  -31.8980  -38.3539 C.3       7 UNK         0.0196 
     46 CB         25.5795  -32.4948  -37.0237 C.3       7 UNK        -0.2007 
     47 C          25.4802  -32.7208  -39.5904 C.2       7 UNK         0.5020 
     48 O          26.0488  -33.8057  -39.4524 O.2       7 UNK        -0.5147 
     49 N          25.1895  -32.1825  -40.7810 N.am      8 UNK        -0.4734 
     50 CA         25.5660  -32.7651  -42.0714 C.3       8 UNK         0.0238 
     51 CB         27.0132  -32.3633  -42.4233 C.3       8 UNK        -0.1912 
     52 C          24.5697  -32.4195  -43.1924 C.2       8 UNK         0.5038 
     53 O          24.9519  -32.4577  -44.3633 O.2       8 UNK        -0.5046 
     54 N          23.3165  -32.0954  -42.8407 N.am      9 UNK        -0.4200 
     55 CA         22.2439  -31.7792  -43.8014 C.3       9 UNK         0.0839 
     56 C          21.7202  -32.9780  -44.6471 C.2       9 UNK         0.5513 
     57 N          22.0435  -34.2219  -44.3132 N.am      9 UNK        -0.7519 
     58 O          21.0111  -32.7715  -45.6283 O.2       9 UNK        -0.4960 
     59 C59        21.0865  -30.9853  -43.1445 C.3       10 UNK        -0.0876 
     60 S60        20.2246  -31.8792  -41.7993 S.3       10 UNK        -0.2414 
     61 C61        18.6752  -32.4067  -42.6063 C.3       10 UNK         0.0169 
     62 H62        17.2269  -22.4056  -46.6646 H         1 UNK         0.0903 
     63 H63        16.7170  -22.5641  -48.3570 H         1 UNK         0.0903 
     64 H64        16.0155  -21.3209  -47.3316 H         1 UNK         0.0903 
     65 H65        14.7530  -25.2373  -46.5859 H         1 UNK         0.3096 
     66 H66        17.2548  -24.8234  -47.9990 H         1 UNK         0.1121 
     67 H67        17.4386  -27.2616  -47.9278 H         1 UNK         0.0849 
     68 H68        15.8766  -26.7874  -48.4931 H         1 UNK         0.0849 
     69 H69        17.0950  -29.7482  -46.6353 H         1 UNK         0.0865 
     70 H70        17.9927  -28.4181  -45.9430 H         1 UNK         0.0865 
     71 H71        18.2984  -31.1568  -44.9960 H         1 UNK         0.1346 
     72 H72        17.0845  -31.0131  -40.8896 H         1 UNK         0.1412 
     73 H73        15.6643  -28.0523  -43.6353 H         1 UNK         0.1426 
     74 H74        15.0306  -29.4685  -40.4026 H         1 UNK         0.0716 
     75 H75        14.8355  -28.0429  -41.3944 H         1 UNK         0.0716 
     76 H76        17.7213  -25.7362  -40.5899 H         1 UNK         0.0695 
     77 H77        16.7160  -26.3798  -41.8549 H         1 UNK         0.0695 
     78 H78        18.5491  -28.1590  -42.2839 H         1 UNK         0.0983 
     79 H79        18.6188  -25.4131  -43.0776 H         1 UNK         0.3095 
     80 H80        20.0761  -24.6392  -44.6813 H         1 UNK         0.0454 
     81 H81        21.6091  -24.9971  -46.5781 H         1 UNK         0.0851 
     82 H82        21.4654  -26.7476  -46.4177 H         1 UNK         0.0851 
     83 H83        22.2362  -25.8049  -45.1515 H         1 UNK         0.0851 
     84 H84        19.2376  -26.0172  -47.0646 H         1 UNK         0.2976 
     85 H85        19.5126  -29.2206  -40.6541 H         1 UNK         0.3116 
     86 H86        21.0449  -29.9830  -39.3096 H         1 UNK         0.0646 
     87 H87        21.6723  -27.1077  -38.4526 H         1 UNK         0.0847 
     88 H88        20.4791  -28.1729  -37.7169 H         1 UNK         0.0847 
     89 H89        22.1860  -28.5723  -37.6321 H         1 UNK         0.0847 
     90 H90        22.4785  -27.0672  -40.7743 H         1 UNK         0.3040 
     91 H91        24.4362  -26.6076  -41.7875 H         1 UNK         0.1015 
     92 H92        24.9252  -28.0259  -43.7475 H         1 UNK         0.0786 
     93 H93        23.1848  -27.8806  -43.5557 H         1 UNK         0.0786 
     94 H94        24.0081  -29.3583  -43.0645 H         1 UNK         0.0786 
     95 H95        24.9799  -27.3601  -39.2712 H         1 UNK         0.3172 
     96 H96        26.5008  -27.9976  -37.7928 H         1 UNK         0.0595 
     97 H97        28.4833  -28.3578  -40.1002 H         1 UNK         0.0839 
     98 H98        28.8745  -28.1671  -38.4001 H         1 UNK         0.0839 
     99 H99        28.1499  -26.8325  -39.2803 H         1 UNK         0.0839 
    100 H100       24.6665  -29.8546  -38.6137 H         1 UNK         0.2998 
    101 H101       23.9802  -31.9224  -38.3257 H         1 UNK         0.0822 
    102 H102       25.1956  -33.5053  -36.8786 H         1 UNK         0.0787 
    103 H103       26.6679  -32.5551  -36.9941 H         1 UNK         0.0787 
    104 H104       25.2529  -31.8994  -36.1711 H         1 UNK         0.0787 
    105 H105       24.6898  -31.2957  -40.8024 H         1 UNK         0.3055 
    106 H106       25.5321  -33.8535  -41.9852 H         1 UNK         0.1106 
    107 H107       27.7104  -32.6479  -41.6351 H         1 UNK         0.0828 
    108 H108       27.3490  -32.8521  -43.3386 H         1 UNK         0.0828 
    109 H109       27.1025  -31.2876  -42.5749 H         1 UNK         0.0828 
    110 H110       23.0599  -32.0715  -41.8635 H         1 UNK         0.2931 
    111 H111       22.6881  -31.0994  -44.5316 H         1 UNK         0.0412 
    112 H112       21.7017  -34.9884  -44.8713 H         1 UNK         0.3472 
    113 H113       22.6153  -34.4014  -43.5041 H         1 UNK         0.3472 
    114 H114       20.3768  -30.6624  -43.9047 H         1 UNK         0.0970 
    115 H115       21.4781  -30.0556  -42.7336 H         1 UNK         0.0970 
    116 H116       18.9062  -32.9673  -43.5131 H         1 UNK         0.0612 
    117 H117       18.1529  -33.0990  -41.9445 H         1 UNK         0.0612 
@<TRIPOS>BOND
     1    1    2 1    
     2    1   62 1    
     3    1   63 1    
     4    1   64 1    
     5    2    3 2    
     6    2    4 am   BACKBONE|DICT|INTERRES
     7    4    5 1    
     8    4   65 1    
     9    5    6 1    
    10    5   25 1    
    11    5   66 1    
    12    6    7 1    
    13    6   67 1    
    14    6   68 1    
    15    7    8 1    
    16    8    9 1    
    17    8   69 1    
    18    8   70 1    
    19    9   10 ar   
    20    9   14 ar   
    21   10   11 ar   
    22   10   71 1    
    23   11   12 ar   
    24   11   61 1    
    25   12   13 ar   
    26   12   72 1    
    27   13   14 ar   
    28   13   15 1    
    29   14   73 1    
    30   15   16 1    
    31   15   74 1    
    32   15   75 1    
    33   16   17 1    
    34   17   18 1    
    35   17   76 1    
    36   17   77 1    
    37   18   19 1    
    38   18   27 1    
    39   18   78 1    
    40   19   20 am   BACKBONE|DICT|INTERRES
    41   19   79 1    
    42   20   21 2    
    43   20   22 1    
    44   22   23 1    
    45   22   24 1    
    46   22   80 1    
    47   23   81 1    
    48   23   82 1    
    49   23   83 1    
    50   24   25 am   BACKBONE|DICT|INTERRES
    51   24   84 1    
    52   25   26 2    
    53   27   28 2    
    54   27   29 am   BACKBONE|DICT|INTERRES
    55   29   30 1    
    56   29   85 1    
    57   30   31 1    
    58   30   32 1    
    59   30   86 1    
    60   31   87 1    
    61   31   88 1    
    62   31   89 1    
    63   32   33 2    
    64   32   34 am   BACKBONE|DICT|INTERRES
    65   34   35 1    
    66   34   90 1    
    67   35   36 1    
    68   35   37 1    
    69   35   91 1    
    70   36   92 1    
    71   36   93 1    
    72   36   94 1    
    73   37   38 2    
    74   37   39 am   BACKBONE|DICT|INTERRES
    75   39   40 1    
    76   39   95 1    
    77   40   41 1    
    78   40   42 1    
    79   40   96 1    
    80   41   97 1    
    81   41   98 1    
    82   41   99 1    
    83   42   43 2    
    84   42   44 am   BACKBONE|DICT|INTERRES
    85   44   45 1    
    86   44  100 1    
    87   45   46 1    
    88   45   47 1    
    89   45  101 1    
    90   46  102 1    
    91   46  103 1    
    92   46  104 1    
    93   47   48 2    
    94   47   49 am   BACKBONE|DICT|INTERRES
    95   49   50 1    
    96   49  105 1    
    97   50   51 1    
    98   50   52 1    
    99   50  106 1    
   100   51  107 1    
   101   51  108 1    
   102   51  109 1    
   103   52   53 2    
   104   52   54 am   BACKBONE|DICT|INTERRES
   105   54   55 1    
   106   54  110 1    
   107   55   56 1    
   108   55   59 1    
   109   55  111 1    
   110   56   57 am   BACKBONE|DICT|INTERRES
   111   56   58 2    
   112   57  112 1    
   113   57  113 1    
   114   59   60 1    
   115   59  114 1    
   116   59  115 1    
   117   60   61 1    
   118   61  116 1    
   119   61  117 1    
@<TRIPOS>SUBSTRUCTURE
     1 UNK         1 GROUP             0       ****    0 ROOT    
