@<TRIPOS>MOLECULE
3R8
117   119    1
SMALL
USER_CHARGES


@<TRIPOS>ATOM
      1 CA         12.8397  -23.8143  -47.6295 C.3       0 UNK        -0.2013 
      2 C          14.1333  -24.4440  -47.1347 C.2       0 UNK         0.4866 
      3 O          15.1070  -24.5132  -47.8854 O.2       0 UNK        -0.5176 
      4 N          14.1505  -24.9109  -45.8796 N.am      1 UNK        -0.4884 
      5 CA         15.3275  -25.4807  -45.2189 C.3       1 UNK         0.0853 
      6 C6         14.9174  -26.2947  -43.9662 C.3       10 UNK        -0.0849 
      7 S7         16.2674  -27.3574  -43.3609 S.3       10 UNK        -0.2776 
      8 C8         15.8836  -28.9235  -44.2031 C.3       10 UNK         0.0316 
      9 C9         17.1183  -29.8056  -44.2423 C.ar      10 UNK        -0.0863 
     10 C10        17.2965  -30.8318  -43.3112 C.ar      10 UNK        -0.1009 
     11 C11        18.4601  -31.6073  -43.3287 C.ar      10 UNK        -0.0712 
     12 C12        19.4518  -31.3425  -44.2786 C.ar      10 UNK        -0.0894 
     13 C13        19.2875  -30.3122  -45.2102 C.ar      10 UNK        -0.0745 
     14 C14        18.1049  -29.5661  -45.2006 C.ar      10 UNK        -0.0972 
     15 C15        20.3933  -30.0086  -46.2168 C.3       10 UNK         0.0209 
     16 S16        20.7114  -28.2226  -46.4293 S.3       10 UNK        -0.2568 
     17 C17        21.2269  -27.7421  -44.7478 C.3       10 UNK        -0.0983 
     18 CA         21.4113  -26.2103  -44.6274 C.3       3 UNK         0.0876 
     19 N          20.1436  -25.4816  -44.7597 N.am      3 UNK        -0.4424 
     20 C          20.0600  -24.1948  -45.1254 C.2       2 UNK         0.4918 
     21 O          21.0395  -23.5257  -45.4602 O.2       2 UNK        -0.4875 
     22 CA         18.6658  -23.5399  -45.1247 C.3       2 UNK         0.0481 
     23 CB         18.5446  -22.4082  -46.1670 C.3       2 UNK        -0.1831 
     24 N          17.5914  -24.5176  -45.3199 N.am      2 UNK        -0.4498 
     25 C          16.3352  -24.3609  -44.8804 C.2       1 UNK         0.5027 
     26 O          15.9502  -23.3834  -44.2327 O.2       1 UNK        -0.4969 
     27 C          22.1041  -25.8435  -43.2998 C.2       3 UNK         0.5005 
     28 O          21.4317  -25.5168  -42.3168 O.2       3 UNK        -0.5279 
     29 N          23.4409  -25.9148  -43.3004 N.am      4 UNK        -0.4463 
     30 CA         24.2951  -25.6766  -42.1363 C.3       4 UNK         0.0283 
     31 CB         25.7338  -25.4354  -42.6271 C.3       4 UNK        -0.1875 
     32 C          24.2594  -26.8501  -41.1426 C.2       4 UNK         0.4949 
     33 O          23.8506  -27.9574  -41.4978 O.2       4 UNK        -0.5039 
     34 N          24.7712  -26.6038  -39.9286 N.am      5 UNK        -0.4663 
     35 CA         24.8908  -27.5769  -38.8315 C.3       5 UNK         0.0242 
     36 CB         25.3689  -26.8419  -37.5678 C.3       5 UNK        -0.1982 
     37 C          25.7984  -28.7904  -39.1276 C.2       5 UNK         0.5017 
     38 O          25.7721  -29.7590  -38.3688 O.2       5 UNK        -0.5012 
     39 N          26.5683  -28.7259  -40.2226 N.am      6 UNK        -0.4439 
     40 CA         27.3573  -29.8246  -40.7821 C.3       6 UNK         0.0297 
     41 CB         28.3476  -29.2486  -41.8084 C.3       6 UNK        -0.2006 
     42 C          26.5072  -30.9438  -41.4214 C.2       6 UNK         0.4892 
     43 O          27.0555  -32.0130  -41.6952 O.2       6 UNK        -0.5089 
     44 N          25.2097  -30.6938  -41.6653 N.am      7 UNK        -0.4243 
     45 CA         24.2431  -31.6756  -42.1671 C.3       7 UNK         0.0196 
     46 CB         22.9032  -30.9705  -42.4340 C.3       7 UNK        -0.2007 
     47 C          24.0350  -32.8521  -41.1963 C.2       7 UNK         0.5020 
     48 O          24.1723  -32.6855  -39.9826 O.2       7 UNK        -0.5147 
     49 N          23.6626  -34.0150  -41.7487 N.am      8 UNK        -0.4734 
     50 CA         23.4813  -35.2800  -41.0213 C.3       8 UNK         0.0238 
     51 CB         23.1720  -36.4005  -42.0279 C.3       8 UNK        -0.1912 
     52 C          22.4123  -35.2473  -39.9127 C.2       8 UNK         0.5038 
     53 O          22.5159  -36.0190  -38.9583 O.2       8 UNK        -0.5046 
     54 N          21.4222  -34.3580  -40.0519 N.am      9 UNK        -0.4200 
     55 CA         20.4052  -34.0647  -39.0331 C.3       9 UNK         0.0839 
     56 C          20.8914  -33.1497  -37.8692 C.2       9 UNK         0.5513 
     57 N          22.0987  -32.5970  -37.9007 N.am      9 UNK        -0.7519 
     58 O          20.1592  -32.9525  -36.9026 O.2       9 UNK        -0.4960 
     59 C59        19.0838  -33.5622  -39.6715 C.3       10 UNK        -0.0876 
     60 S60        19.2797  -32.0904  -40.7387 S.3       10 UNK        -0.2414 
     61 C61        18.6397  -32.7271  -42.3170 C.3       10 UNK         0.0169 
     62 H62        12.4717  -24.3508  -48.5037 H         1 UNK         0.0903 
     63 H63        12.0598  -23.8314  -46.8683 H         1 UNK         0.0903 
     64 H64        13.0130  -22.7769  -47.9142 H         1 UNK         0.0903 
     65 H65        13.3329  -24.7950  -45.2973 H         1 UNK         0.3096 
     66 H66        15.7939  -26.1668  -45.9300 H         1 UNK         0.1121 
     67 H67        14.5979  -25.6351  -43.1567 H         1 UNK         0.0849 
     68 H68        14.0552  -26.9257  -44.1898 H         1 UNK         0.0849 
     69 H69        15.0610  -29.4242  -43.6900 H         1 UNK         0.0865 
     70 H70        15.5432  -28.7290  -45.2215 H         1 UNK         0.0865 
     71 H71        16.5378  -31.0199  -42.5635 H         1 UNK         0.1346 
     72 H72        20.3543  -31.9371  -44.2889 H         1 UNK         0.1412 
     73 H73        17.9659  -28.7692  -45.9182 H         1 UNK         0.1426 
     74 H74        20.1141  -30.4333  -47.1817 H         1 UNK         0.0716 
     75 H75        21.3260  -30.4923  -45.9217 H         1 UNK         0.0716 
     76 H76        22.1594  -28.2660  -44.5293 H         1 UNK         0.0695 
     77 H77        20.4953  -28.0982  -44.0199 H         1 UNK         0.0695 
     78 H78        22.0714  -25.8904  -45.4376 H         1 UNK         0.0983 
     79 H79        19.3200  -25.9531  -44.4174 H         1 UNK         0.3095 
     80 H80        18.5560  -23.0982  -44.1321 H         1 UNK         0.0454 
     81 H81        19.3018  -21.6394  -46.0082 H         1 UNK         0.0851 
     82 H82        17.5751  -21.9134  -46.1105 H         1 UNK         0.0851 
     83 H83        18.6681  -22.7860  -47.1824 H         1 UNK         0.0851 
     84 H84        17.8264  -25.3321  -45.8710 H         1 UNK         0.2976 
     85 H85        23.9082  -26.2322  -44.1374 H         1 UNK         0.3116 
     86 H86        23.9420  -24.7792  -41.6232 H         1 UNK         0.0646 
     87 H87        26.4021  -25.1944  -41.7995 H         1 UNK         0.0847 
     88 H88        25.7793  -24.5982  -43.3241 H         1 UNK         0.0847 
     89 H89        26.1429  -26.3122  -43.1312 H         1 UNK         0.0847 
     90 H90        25.1004  -25.6693  -39.7291 H         1 UNK         0.3040 
     91 H91        23.8925  -27.9765  -38.6389 H         1 UNK         0.1015 
     92 H92        25.4321  -27.5232  -36.7179 H         1 UNK         0.0786 
     93 H93        24.6813  -26.0438  -37.2872 H         1 UNK         0.0786 
     94 H94        26.3576  -26.4026  -37.7067 H         1 UNK         0.0786 
     95 H95        26.5200  -27.8795  -40.7697 H         1 UNK         0.3172 
     96 H96        27.9303  -30.2768  -39.9699 H         1 UNK         0.0595 
     97 H97        27.8328  -28.7767  -42.6464 H         1 UNK         0.0839 
     98 H98        28.9850  -30.0330  -42.2191 H         1 UNK         0.0839 
     99 H99        29.0050  -28.5065  -41.3549 H         1 UNK         0.0839 
    100 H100       24.8354  -29.7823  -41.4248 H         1 UNK         0.2998 
    101 H101       24.6295  -32.0682  -43.1099 H         1 UNK         0.0822 
    102 H102       23.0113  -30.1793  -43.1757 H         1 UNK         0.0787 
    103 H103       22.4961  -30.5229  -41.5260 H         1 UNK         0.0787 
    104 H104       22.1581  -31.6702  -42.8116 H         1 UNK         0.0787 
    105 H105       23.5540  -34.0582  -42.7524 H         1 UNK         0.3055 
    106 H106       24.4310  -35.5111  -40.5334 H         1 UNK         0.1106 
    107 H107       22.2473  -36.2093  -42.5739 H         1 UNK         0.0828 
    108 H108       23.9758  -36.5161  -42.7551 H         1 UNK         0.0828 
    109 H109       23.0580  -37.3603  -41.5216 H         1 UNK         0.0828 
    110 H110       21.4313  -33.7464  -40.8540 H         1 UNK         0.2931 
    111 H111       20.1593  -35.0126  -38.5503 H         1 UNK         0.0412 
    112 H112       22.7304  -32.7415  -38.6828 H         1 UNK         0.3472 
    113 H113       22.3899  -32.0161  -37.1310 H         1 UNK         0.3472 
    114 H114       18.6448  -34.3744  -40.2526 H         1 UNK         0.0970 
    115 H115       18.3443  -33.3343  -38.9015 H         1 UNK         0.0970 
    116 H116       17.6807  -33.2203  -42.1499 H         1 UNK         0.0612 
    117 H117       19.3190  -33.4892  -42.7025 H         1 UNK         0.0612 
@<TRIPOS>BOND
     1    1    2 1    
     2    1   62 1    
     3    1   63 1    
     4    1   64 1    
     5    2    3 2    
     6    2    4 am   BACKBONE|DICT|INTERRES
     7    4    5 1    
     8    4   65 1    
     9    5    6 1    
    10    5   25 1    
    11    5   66 1    
    12    6    7 1    
    13    6   67 1    
    14    6   68 1    
    15    7    8 1    
    16    8    9 1    
    17    8   69 1    
    18    8   70 1    
    19    9   10 ar   
    20    9   14 ar   
    21   10   11 ar   
    22   10   71 1    
    23   11   12 ar   
    24   11   61 1    
    25   12   13 ar   
    26   12   72 1    
    27   13   14 ar   
    28   13   15 1    
    29   14   73 1    
    30   15   16 1    
    31   15   74 1    
    32   15   75 1    
    33   16   17 1    
    34   17   18 1    
    35   17   76 1    
    36   17   77 1    
    37   18   19 1    
    38   18   27 1    
    39   18   78 1    
    40   19   20 am   BACKBONE|DICT|INTERRES
    41   19   79 1    
    42   20   21 2    
    43   20   22 1    
    44   22   23 1    
    45   22   24 1    
    46   22   80 1    
    47   23   81 1    
    48   23   82 1    
    49   23   83 1    
    50   24   25 am   BACKBONE|DICT|INTERRES
    51   24   84 1    
    52   25   26 2    
    53   27   28 2    
    54   27   29 am   BACKBONE|DICT|INTERRES
    55   29   30 1    
    56   29   85 1    
    57   30   31 1    
    58   30   32 1    
    59   30   86 1    
    60   31   87 1    
    61   31   88 1    
    62   31   89 1    
    63   32   33 2    
    64   32   34 am   BACKBONE|DICT|INTERRES
    65   34   35 1    
    66   34   90 1    
    67   35   36 1    
    68   35   37 1    
    69   35   91 1    
    70   36   92 1    
    71   36   93 1    
    72   36   94 1    
    73   37   38 2    
    74   37   39 am   BACKBONE|DICT|INTERRES
    75   39   40 1    
    76   39   95 1    
    77   40   41 1    
    78   40   42 1    
    79   40   96 1    
    80   41   97 1    
    81   41   98 1    
    82   41   99 1    
    83   42   43 2    
    84   42   44 am   BACKBONE|DICT|INTERRES
    85   44   45 1    
    86   44  100 1    
    87   45   46 1    
    88   45   47 1    
    89   45  101 1    
    90   46  102 1    
    91   46  103 1    
    92   46  104 1    
    93   47   48 2    
    94   47   49 am   BACKBONE|DICT|INTERRES
    95   49   50 1    
    96   49  105 1    
    97   50   51 1    
    98   50   52 1    
    99   50  106 1    
   100   51  107 1    
   101   51  108 1    
   102   51  109 1    
   103   52   53 2    
   104   52   54 am   BACKBONE|DICT|INTERRES
   105   54   55 1    
   106   54  110 1    
   107   55   56 1    
   108   55   59 1    
   109   55  111 1    
   110   56   57 am   BACKBONE|DICT|INTERRES
   111   56   58 2    
   112   57  112 1    
   113   57  113 1    
   114   59   60 1    
   115   59  114 1    
   116   59  115 1    
   117   60   61 1    
   118   61  116 1    
   119   61  117 1    
@<TRIPOS>SUBSTRUCTURE
     1 UNK         1 GROUP             0       ****    0 ROOT    
