@<TRIPOS>MOLECULE
3R8
117   119    1
SMALL
USER_CHARGES


@<TRIPOS>ATOM
      1 CA         18.8811  -22.2984  -47.5103 C.3       0 UNK        -0.2013 
      2 C          17.4910  -22.7346  -47.0532 C.2       0 UNK         0.4866 
      3 O          16.6078  -21.8892  -46.9209 O.2       0 UNK        -0.5176 
      4 N          17.2360  -24.0290  -46.8147 N.am      1 UNK        -0.4884 
      5 CA         18.1924  -25.1424  -46.8488 C.3       1 UNK         0.0853 
      6 C6         17.4509  -26.4976  -46.9748 C.3       10 UNK        -0.0849 
      7 S7         18.4977  -27.7954  -47.7173 S.3       10 UNK        -0.2776 
      8 C8         17.5646  -29.2993  -47.2969 C.3       10 UNK         0.0316 
      9 C9         17.7742  -29.7293  -45.8509 C.ar      10 UNK        -0.0863 
     10 C10        18.9003  -30.4796  -45.4984 C.ar      10 UNK        -0.1009 
     11 C11        19.0664  -30.9477  -44.1907 C.ar      10 UNK        -0.0712 
     12 C12        18.0858  -30.6623  -43.2348 C.ar      10 UNK        -0.0894 
     13 C13        16.9798  -29.8710  -43.5610 C.ar      10 UNK        -0.0745 
     14 C14        16.8242  -29.4175  -44.8742 C.ar      10 UNK        -0.0972 
     15 C15        15.9444  -29.5116  -42.5018 C.3       10 UNK         0.0209 
     16 S16        16.6733  -28.6926  -41.0428 S.3       10 UNK        -0.2568 
     17 C17        17.5394  -27.2616  -41.7806 C.3       10 UNK        -0.0983 
     18 CA         19.0779  -27.4728  -41.8537 C.3       3 UNK         0.0876 
     19 N          19.6582  -26.7316  -42.9722 N.am      3 UNK        -0.4424 
     20 C          20.8094  -27.0173  -43.5903 C.2       2 UNK         0.4918 
     21 O          21.5018  -28.0042  -43.3341 O.2       2 UNK        -0.4875 
     22 CA         21.2603  -26.0080  -44.6679 C.3       2 UNK         0.0481 
     23 CB         22.5929  -26.3997  -45.3293 C.3       2 UNK        -0.1831 
     24 N          20.2557  -25.8254  -45.7185 N.am      2 UNK        -0.4498 
     25 C          19.1197  -25.1254  -45.6139 C.2       1 UNK         0.5027 
     26 O          18.7870  -24.5175  -44.5922 O.2       1 UNK        -0.4969 
     27 C          19.8047  -27.1513  -40.5266 C.2       3 UNK         0.5005 
     28 O          20.8390  -26.4788  -40.5236 O.2       3 UNK        -0.5279 
     29 N          19.2674  -27.6711  -39.4128 N.am      4 UNK        -0.4463 
     30 CA         19.8039  -27.5756  -38.0461 C.3       4 UNK         0.0283 
     31 CB         19.7170  -26.1262  -37.5224 C.3       4 UNK        -0.1875 
     32 C          21.2208  -28.1733  -37.9212 C.2       4 UNK         0.4949 
     33 O          22.0473  -27.6596  -37.1665 O.2       4 UNK        -0.5039 
     34 N          21.4653  -29.2435  -38.6924 N.am      5 UNK        -0.4663 
     35 CA         22.7237  -29.9815  -38.8346 C.3       5 UNK         0.0242 
     36 CB         23.1374  -30.6371  -37.4993 C.3       5 UNK        -0.1982 
     37 C          23.8712  -29.1776  -39.4792 C.2       5 UNK         0.5017 
     38 O          25.0253  -29.5899  -39.3518 O.2       5 UNK        -0.5012 
     39 N          23.5668  -28.0821  -40.1964 N.am      6 UNK        -0.4439 
     40 CA         24.5648  -27.2869  -40.9259 C.3       6 UNK         0.0297 
     41 CB         23.9448  -25.9717  -41.4189 C.3       6 UNK        -0.2006 
     42 C          25.2255  -28.0603  -42.0832 C.2       6 UNK         0.4892 
     43 O          26.4232  -27.8899  -42.3112 O.2       6 UNK        -0.5089 
     44 N          24.4561  -28.9356  -42.7449 N.am      7 UNK        -0.4243 
     45 CA         24.9393  -29.9177  -43.7207 C.3       7 UNK         0.0196 
     46 CB         24.0208  -29.8914  -44.9557 C.3       7 UNK        -0.2007 
     47 C          25.0393  -31.3250  -43.0981 C.2       7 UNK         0.5020 
     48 O          24.8302  -32.3171  -43.7984 O.2       7 UNK        -0.5147 
     49 N          25.3268  -31.3970  -41.7885 N.am      8 UNK        -0.4734 
     50 CA         25.3878  -32.5794  -40.9132 C.3       8 UNK         0.0238 
     51 CB         26.4285  -33.6099  -41.3946 C.3       8 UNK        -0.1912 
     52 C          24.0151  -33.2275  -40.6663 C.2       8 UNK         0.5038 
     53 O          23.6328  -33.4016  -39.5097 O.2       8 UNK        -0.5046 
     54 N          23.2936  -33.5332  -41.7500 N.am      9 UNK        -0.4200 
     55 CA         21.9001  -34.0067  -41.7827 C.3       9 UNK         0.0839 
     56 C          21.6501  -35.3903  -41.1088 C.2       9 UNK         0.5513 
     57 N          22.6663  -36.2240  -40.9229 N.am      9 UNK        -0.7519 
     58 O          20.5166  -35.7316  -40.7801 O.2       9 UNK        -0.4960 
     59 C59        20.8861  -32.9140  -41.3286 C.3       10 UNK        -0.0876 
     60 S60        21.0661  -31.3471  -42.2532 S.3       10 UNK        -0.2414 
     61 C61        20.2842  -31.7970  -43.8423 C.3       10 UNK         0.0169 
     62 H62        19.6243  -22.4813  -46.7351 H         1 UNK         0.0903 
     63 H63        19.1788  -22.8196  -48.4195 H         1 UNK         0.0903 
     64 H64        18.8910  -21.2305  -47.7284 H         1 UNK         0.0903 
     65 H65        16.3121  -24.2722  -46.4869 H         1 UNK         0.3096 
     66 H66        18.8144  -25.0138  -47.7369 H         1 UNK         0.1121 
     67 H67        17.0641  -26.8255  -46.0085 H         1 UNK         0.0849 
     68 H68        16.5803  -26.3912  -47.6247 H         1 UNK         0.0849 
     69 H69        16.5047  -29.1445  -47.5055 H         1 UNK         0.0865 
     70 H70        17.8841  -30.1041  -47.9609 H         1 UNK         0.0865 
     71 H71        19.6394  -30.7152  -46.2520 H         1 UNK         0.1346 
     72 H72        18.1956  -31.0325  -42.2249 H         1 UNK         0.1412 
     73 H73        15.9550  -28.8315  -45.1402 H         1 UNK         0.1426 
     74 H74        15.4379  -30.4221  -42.1789 H         1 UNK         0.0716 
     75 H75        15.1730  -28.8607  -42.9163 H         1 UNK         0.0716 
     76 H76        17.1306  -27.1022  -42.7800 H         1 UNK         0.0695 
     77 H77        17.2880  -26.3596  -41.2191 H         1 UNK         0.0695 
     78 H78        19.2746  -28.5275  -42.0519 H         1 UNK         0.0983 
     79 H79        19.1835  -25.8788  -43.2495 H         1 UNK         0.3095 
     80 H80        21.4132  -25.0524  -44.1620 H         1 UNK         0.0454 
     81 H81        22.4900  -27.3150  -45.9120 H         1 UNK         0.0851 
     82 H82        22.9489  -25.6160  -45.9979 H         1 UNK         0.0851 
     83 H83        23.3732  -26.5666  -44.5858 H         1 UNK         0.0851 
     84 H84        20.4038  -26.3577  -46.5653 H         1 UNK         0.2976 
     85 H85        18.4073  -28.1977  -39.5163 H         1 UNK         0.3116 
     86 H86        19.1584  -28.1919  -37.4186 H         1 UNK         0.0646 
     87 H87        19.9887  -26.0746  -36.4675 H         1 UNK         0.0847 
     88 H88        18.7058  -25.7303  -37.6146 H         1 UNK         0.0847 
     89 H89        20.3893  -25.4588  -38.0626 H         1 UNK         0.0847 
     90 H90        20.7080  -29.5673  -39.2782 H         1 UNK         0.3040 
     91 H91        22.5132  -30.7890  -39.5363 H         1 UNK         0.1015 
     92 H92        22.3223  -31.2246  -37.0769 H         1 UNK         0.0786 
     93 H93        23.4406  -29.8973  -36.7583 H         1 UNK         0.0786 
     94 H94        23.9793  -31.3161  -37.6403 H         1 UNK         0.0786 
     95 H95        22.6030  -27.7699  -40.2489 H         1 UNK         0.3172 
     96 H96        25.3554  -27.0297  -40.2175 H         1 UNK         0.0595 
     97 H97        23.5576  -25.3806  -40.5887 H         1 UNK         0.0839 
     98 H98        23.1241  -26.1466  -42.1114 H         1 UNK         0.0839 
     99 H99        24.6845  -25.3599  -41.9369 H         1 UNK         0.0839 
    100 H100       23.4673  -28.9732  -42.5256 H         1 UNK         0.2998 
    101 H101       25.9461  -29.6576  -44.0532 H         1 UNK         0.0822 
    102 H102       24.0692  -28.9235  -45.4507 H         1 UNK         0.0787 
    103 H103       24.3186  -30.6362  -45.6947 H         1 UNK         0.0787 
    104 H104       22.9809  -30.0854  -44.6898 H         1 UNK         0.0787 
    105 H105       25.4472  -30.5192  -41.2958 H         1 UNK         0.3055 
    106 H106       25.7290  -32.2075  -39.9452 H         1 UNK         0.1106 
    107 H107       26.1564  -34.0608  -42.3490 H         1 UNK         0.0828 
    108 H108       27.4120  -33.1541  -41.5087 H         1 UNK         0.0828 
    109 H109       26.5304  -34.4216  -40.6732 H         1 UNK         0.0828 
    110 H110       23.7121  -33.3182  -42.6511 H         1 UNK         0.2931 
    111 H111       21.7059  -34.1976  -42.8382 H         1 UNK         0.0412 
    112 H112       22.4990  -37.1220  -40.4965 H         1 UNK         0.3472 
    113 H113       23.5992  -35.9584  -41.1952 H         1 UNK         0.3472 
    114 H114       21.0097  -32.7044  -40.2651 H         1 UNK         0.0970 
    115 H115       19.8584  -33.2629  -41.4451 H         1 UNK         0.0970 
    116 H116       21.0442  -31.7075  -44.6197 H         1 UNK         0.0612 
    117 H117       19.9779  -32.8432  -43.8367 H         1 UNK         0.0612 
@<TRIPOS>BOND
     1    1    2 1    
     2    1   62 1    
     3    1   63 1    
     4    1   64 1    
     5    2    3 2    
     6    2    4 am   BACKBONE|DICT|INTERRES
     7    4    5 1    
     8    4   65 1    
     9    5    6 1    
    10    5   25 1    
    11    5   66 1    
    12    6    7 1    
    13    6   67 1    
    14    6   68 1    
    15    7    8 1    
    16    8    9 1    
    17    8   69 1    
    18    8   70 1    
    19    9   10 ar   
    20    9   14 ar   
    21   10   11 ar   
    22   10   71 1    
    23   11   12 ar   
    24   11   61 1    
    25   12   13 ar   
    26   12   72 1    
    27   13   14 ar   
    28   13   15 1    
    29   14   73 1    
    30   15   16 1    
    31   15   74 1    
    32   15   75 1    
    33   16   17 1    
    34   17   18 1    
    35   17   76 1    
    36   17   77 1    
    37   18   19 1    
    38   18   27 1    
    39   18   78 1    
    40   19   20 am   BACKBONE|DICT|INTERRES
    41   19   79 1    
    42   20   21 2    
    43   20   22 1    
    44   22   23 1    
    45   22   24 1    
    46   22   80 1    
    47   23   81 1    
    48   23   82 1    
    49   23   83 1    
    50   24   25 am   BACKBONE|DICT|INTERRES
    51   24   84 1    
    52   25   26 2    
    53   27   28 2    
    54   27   29 am   BACKBONE|DICT|INTERRES
    55   29   30 1    
    56   29   85 1    
    57   30   31 1    
    58   30   32 1    
    59   30   86 1    
    60   31   87 1    
    61   31   88 1    
    62   31   89 1    
    63   32   33 2    
    64   32   34 am   BACKBONE|DICT|INTERRES
    65   34   35 1    
    66   34   90 1    
    67   35   36 1    
    68   35   37 1    
    69   35   91 1    
    70   36   92 1    
    71   36   93 1    
    72   36   94 1    
    73   37   38 2    
    74   37   39 am   BACKBONE|DICT|INTERRES
    75   39   40 1    
    76   39   95 1    
    77   40   41 1    
    78   40   42 1    
    79   40   96 1    
    80   41   97 1    
    81   41   98 1    
    82   41   99 1    
    83   42   43 2    
    84   42   44 am   BACKBONE|DICT|INTERRES
    85   44   45 1    
    86   44  100 1    
    87   45   46 1    
    88   45   47 1    
    89   45  101 1    
    90   46  102 1    
    91   46  103 1    
    92   46  104 1    
    93   47   48 2    
    94   47   49 am   BACKBONE|DICT|INTERRES
    95   49   50 1    
    96   49  105 1    
    97   50   51 1    
    98   50   52 1    
    99   50  106 1    
   100   51  107 1    
   101   51  108 1    
   102   51  109 1    
   103   52   53 2    
   104   52   54 am   BACKBONE|DICT|INTERRES
   105   54   55 1    
   106   54  110 1    
   107   55   56 1    
   108   55   59 1    
   109   55  111 1    
   110   56   57 am   BACKBONE|DICT|INTERRES
   111   56   58 2    
   112   57  112 1    
   113   57  113 1    
   114   59   60 1    
   115   59  114 1    
   116   59  115 1    
   117   60   61 1    
   118   61  116 1    
   119   61  117 1    
@<TRIPOS>SUBSTRUCTURE
     1 UNK         1 GROUP             0       ****    0 ROOT    
