@<TRIPOS>MOLECULE
3R8
117   119    1
SMALL
USER_CHARGES


@<TRIPOS>ATOM
      1 CA         14.0052  -23.3091  -46.8123 C.3       0 UNK        -0.2013 
      2 C          15.1667  -24.2262  -46.4617 C.2       0 UNK         0.4866 
      3 O          16.0669  -24.4177  -47.2800 O.2       0 UNK        -0.5176 
      4 N          15.1677  -24.7850  -45.2451 N.am      1 UNK        -0.4884 
      5 CA         16.1733  -25.7232  -44.7240 C.3       1 UNK         0.0853 
      6 C6         15.5820  -26.6182  -43.6023 C.3       10 UNK        -0.0849 
      7 S7         14.2684  -27.7138  -44.2423 S.3       10 UNK        -0.2776 
      8 C8         14.6364  -29.2948  -43.3977 C.3       10 UNK         0.0316 
      9 C9         15.9996  -29.9235  -43.7017 C.ar      10 UNK        -0.0863 
     10 C10        16.5107  -30.8679  -42.8045 C.ar      10 UNK        -0.1009 
     11 C11        17.7484  -31.4765  -43.0311 C.ar      10 UNK        -0.0712 
     12 C12        18.4877  -31.1290  -44.1635 C.ar      10 UNK        -0.0894 
     13 C13        17.9939  -30.1919  -45.0728 C.ar      10 UNK        -0.0745 
     14 C14        16.7436  -29.6069  -44.8472 C.ar      10 UNK        -0.0972 
     15 C15        18.7983  -29.8346  -46.3143 C.3       10 UNK         0.0209 
     16 S16        19.3330  -28.0959  -46.3099 S.3       10 UNK        -0.2568 
     17 C17        20.6322  -28.0775  -45.0234 C.3       10 UNK        -0.0983 
     18 CA         21.3999  -26.7288  -45.0428 C.3       3 UNK         0.0876 
     19 N          20.4906  -25.6136  -44.7795 N.am      3 UNK        -0.4424 
     20 C          20.4762  -24.4388  -45.4138 C.2       2 UNK         0.4918 
     21 O          21.2853  -24.1188  -46.2868 O.2       2 UNK        -0.4875 
     22 CA         19.3206  -23.4905  -45.0319 C.3       2 UNK         0.0481 
     23 CB         19.3054  -22.2012  -45.8733 C.3       2 UNK        -0.1831 
     24 N          18.0260  -24.1645  -45.1736 N.am      2 UNK        -0.4498 
     25 C          17.4720  -25.0043  -44.2890 C.2       1 UNK         0.5027 
     26 O          17.9729  -25.2350  -43.1864 O.2       1 UNK        -0.4969 
     27 C          22.5771  -26.6852  -44.0460 C.2       3 UNK         0.5005 
     28 O          22.5772  -25.8626  -43.1253 O.2       3 UNK        -0.5279 
     29 N          23.5779  -27.5524  -44.2589 N.am      4 UNK        -0.4463 
     30 CA         24.8910  -27.5846  -43.5916 C.3       4 UNK         0.0283 
     31 CB         25.8266  -28.4998  -44.4061 C.3       4 UNK        -0.1875 
     32 C          24.9025  -27.9485  -42.0863 C.2       4 UNK         0.4949 
     33 O          25.8287  -28.6242  -41.6345 O.2       4 UNK        -0.5039 
     34 N          23.9031  -27.4823  -41.3272 N.am      5 UNK        -0.4663 
     35 CA         23.7379  -27.6158  -39.8746 C.3       5 UNK         0.0242 
     36 CB         24.6755  -26.6203  -39.1534 C.3       5 UNK        -0.1982 
     37 C          23.8805  -29.0755  -39.3993 C.2       5 UNK         0.5017 
     38 O          23.2184  -29.9507  -39.9571 O.2       5 UNK        -0.5012 
     39 N          24.7619  -29.3233  -38.4207 N.am      6 UNK        -0.4439 
     40 CA         25.0468  -30.6374  -37.8372 C.3       6 UNK         0.0297 
     41 CB         26.0252  -30.4658  -36.6642 C.3       6 UNK        -0.2006 
     42 C          25.5810  -31.6876  -38.8302 C.2       6 UNK         0.4892 
     43 O          25.4165  -32.8802  -38.5716 O.2       6 UNK        -0.5089 
     44 N          26.1948  -31.2488  -39.9406 N.am      7 UNK        -0.4243 
     45 CA         26.6418  -32.1336  -41.0203 C.3       7 UNK         0.0196 
     46 CB         27.7260  -31.4347  -41.8566 C.3       7 UNK        -0.2007 
     47 C          25.4785  -32.5997  -41.9131 C.2       7 UNK         0.5020 
     48 O          25.5875  -33.6611  -42.5274 O.2       7 UNK        -0.5147 
     49 N          24.3910  -31.8180  -41.9669 N.am      8 UNK        -0.4734 
     50 CA         23.1503  -32.1807  -42.6495 C.3       8 UNK         0.0238 
     51 CB         22.4523  -30.9121  -43.1665 C.3       8 UNK        -0.1912 
     52 C          22.2377  -32.9909  -41.7165 C.2       8 UNK         0.5038 
     53 O          21.7822  -34.0663  -42.1072 O.2       8 UNK        -0.5046 
     54 N          22.0143  -32.4796  -40.5001 N.am      9 UNK        -0.4200 
     55 CA         21.2185  -33.1090  -39.4405 C.3       9 UNK         0.0839 
     56 C          21.4387  -32.3750  -38.0947 C.2       9 UNK         0.5513 
     57 N          21.8703  -33.0849  -37.0611 N.am      9 UNK        -0.7519 
     58 O          21.1864  -31.1806  -37.9638 O.2       9 UNK        -0.4960 
     59 C59        19.7067  -33.2705  -39.7832 C.3       10 UNK        -0.0876 
     60 S60        18.9174  -31.8011  -40.5386 S.3       10 UNK        -0.2414 
     61 C61        18.2745  -32.5336  -42.0736 C.3       10 UNK         0.0169 
     62 H62        14.3723  -22.3082  -47.0379 H         1 UNK         0.0903 
     63 H63        13.4822  -23.6865  -47.6906 H         1 UNK         0.0903 
     64 H64        13.2860  -23.2314  -45.9971 H         1 UNK         0.0903 
     65 H65        14.4085  -24.5775  -44.6113 H         1 UNK         0.3096 
     66 H66        16.4741  -26.3843  -45.5405 H         1 UNK         0.1121 
     67 H67        15.1761  -26.0099  -42.7922 H         1 UNK         0.0849 
     68 H68        16.3612  -27.2364  -43.1527 H         1 UNK         0.0849 
     69 H69        14.5422  -29.1312  -42.3228 H         1 UNK         0.0865 
     70 H70        13.8614  -30.0138  -43.6662 H         1 UNK         0.0865 
     71 H71        15.9426  -31.1374  -41.9241 H         1 UNK         0.1346 
     72 H72        19.4389  -31.6058  -44.3483 H         1 UNK         0.1412 
     73 H73        16.3631  -28.8985  -45.5688 H         1 UNK         0.1426 
     74 H74        18.1802  -30.0080  -47.1962 H         1 UNK         0.0716 
     75 H75        19.6713  -30.4803  -46.4211 H         1 UNK         0.0716 
     76 H76        20.1715  -28.2552  -44.0495 H         1 UNK         0.0695 
     77 H77        21.3058  -28.9149  -45.2104 H         1 UNK         0.0695 
     78 H78        21.8340  -26.6048  -46.0377 H         1 UNK         0.0983 
     79 H79        19.8082  -25.7583  -44.0453 H         1 UNK         0.3095 
     80 H80        19.4638  -23.2051  -43.9877 H         1 UNK         0.0454 
     81 H81        20.2419  -21.6524  -45.7654 H         1 UNK         0.0851 
     82 H82        19.1706  -22.4132  -46.9347 H         1 UNK         0.0851 
     83 H83        18.5028  -21.5333  -45.5605 H         1 UNK         0.0851 
     84 H84        17.5563  -24.0726  -46.0703 H         1 UNK         0.2976 
     85 H85        23.4750  -28.2001  -45.0265 H         1 UNK         0.3116 
     86 H86        25.2980  -26.5732  -43.6506 H         1 UNK         0.0646 
     87 H87        26.8485  -28.4580  -44.0263 H         1 UNK         0.0847 
     88 H88        25.8683  -28.2014  -45.4537 H         1 UNK         0.0847 
     89 H89        25.5074  -29.5419  -44.3628 H         1 UNK         0.0847 
     90 H90        23.2116  -26.9078  -41.8062 H         1 UNK         0.3040 
     91 H91        22.7091  -27.3288  -39.6519 H         1 UNK         0.1015 
     92 H92        24.4992  -25.6019  -39.5003 H         1 UNK         0.0786 
     93 H93        25.7282  -26.8460  -39.3304 H         1 UNK         0.0786 
     94 H94        24.5048  -26.6172  -38.0760 H         1 UNK         0.0786 
     95 H95        25.2805  -28.5416  -38.0471 H         1 UNK         0.3172 
     96 H96        24.1066  -31.0227  -37.4388 H         1 UNK         0.0595 
     97 H97        25.6169  -29.8074  -35.8972 H         1 UNK         0.0839 
     98 H98        26.9801  -30.0525  -36.9915 H         1 UNK         0.0839 
     99 H99        26.2328  -31.4243  -36.1860 H         1 UNK         0.0839 
    100 H100       26.2568  -30.2521  -40.1133 H         1 UNK         0.2998 
    101 H101       27.0899  -33.0243  -40.5739 H         1 UNK         0.0822 
    102 H102       28.5527  -31.0938  -41.2333 H         1 UNK         0.0787 
    103 H103       28.1402  -32.1175  -42.5995 H         1 UNK         0.0787 
    104 H104       27.3334  -30.5736  -42.3966 H         1 UNK         0.0787 
    105 H105       24.3608  -30.9863  -41.3880 H         1 UNK         0.3055 
    106 H106       23.3825  -32.8069  -43.5142 H         1 UNK         0.1106 
    107 H107       22.1655  -30.2360  -42.3607 H         1 UNK         0.0828 
    108 H108       23.0978  -30.3638  -43.8507 H         1 UNK         0.0828 
    109 H109       21.5469  -31.1668  -43.7140 H         1 UNK         0.0828 
    110 H110       22.4136  -31.5738  -40.2572 H         1 UNK         0.2931 
    111 H111       21.6244  -34.1162  -39.3225 H         1 UNK         0.0412 
    112 H112       21.9993  -32.6272  -36.1723 H         1 UNK         0.3472 
    113 H113       22.0771  -34.0677  -37.1523 H         1 UNK         0.3472 
    114 H114       19.1376  -33.5469  -38.8936 H         1 UNK         0.0970 
    115 H115       19.5927  -34.1205  -40.4570 H         1 UNK         0.0970 
    116 H116       19.0642  -33.1138  -42.5539 H         1 UNK         0.0612 
    117 H117       17.4777  -33.2378  -41.8299 H         1 UNK         0.0612 
@<TRIPOS>BOND
     1    1    2 1    
     2    1   62 1    
     3    1   63 1    
     4    1   64 1    
     5    2    3 2    
     6    2    4 am   BACKBONE|DICT|INTERRES
     7    4    5 1    
     8    4   65 1    
     9    5    6 1    
    10    5   25 1    
    11    5   66 1    
    12    6    7 1    
    13    6   67 1    
    14    6   68 1    
    15    7    8 1    
    16    8    9 1    
    17    8   69 1    
    18    8   70 1    
    19    9   10 ar   
    20    9   14 ar   
    21   10   11 ar   
    22   10   71 1    
    23   11   12 ar   
    24   11   61 1    
    25   12   13 ar   
    26   12   72 1    
    27   13   14 ar   
    28   13   15 1    
    29   14   73 1    
    30   15   16 1    
    31   15   74 1    
    32   15   75 1    
    33   16   17 1    
    34   17   18 1    
    35   17   76 1    
    36   17   77 1    
    37   18   19 1    
    38   18   27 1    
    39   18   78 1    
    40   19   20 am   BACKBONE|DICT|INTERRES
    41   19   79 1    
    42   20   21 2    
    43   20   22 1    
    44   22   23 1    
    45   22   24 1    
    46   22   80 1    
    47   23   81 1    
    48   23   82 1    
    49   23   83 1    
    50   24   25 am   BACKBONE|DICT|INTERRES
    51   24   84 1    
    52   25   26 2    
    53   27   28 2    
    54   27   29 am   BACKBONE|DICT|INTERRES
    55   29   30 1    
    56   29   85 1    
    57   30   31 1    
    58   30   32 1    
    59   30   86 1    
    60   31   87 1    
    61   31   88 1    
    62   31   89 1    
    63   32   33 2    
    64   32   34 am   BACKBONE|DICT|INTERRES
    65   34   35 1    
    66   34   90 1    
    67   35   36 1    
    68   35   37 1    
    69   35   91 1    
    70   36   92 1    
    71   36   93 1    
    72   36   94 1    
    73   37   38 2    
    74   37   39 am   BACKBONE|DICT|INTERRES
    75   39   40 1    
    76   39   95 1    
    77   40   41 1    
    78   40   42 1    
    79   40   96 1    
    80   41   97 1    
    81   41   98 1    
    82   41   99 1    
    83   42   43 2    
    84   42   44 am   BACKBONE|DICT|INTERRES
    85   44   45 1    
    86   44  100 1    
    87   45   46 1    
    88   45   47 1    
    89   45  101 1    
    90   46  102 1    
    91   46  103 1    
    92   46  104 1    
    93   47   48 2    
    94   47   49 am   BACKBONE|DICT|INTERRES
    95   49   50 1    
    96   49  105 1    
    97   50   51 1    
    98   50   52 1    
    99   50  106 1    
   100   51  107 1    
   101   51  108 1    
   102   51  109 1    
   103   52   53 2    
   104   52   54 am   BACKBONE|DICT|INTERRES
   105   54   55 1    
   106   54  110 1    
   107   55   56 1    
   108   55   59 1    
   109   55  111 1    
   110   56   57 am   BACKBONE|DICT|INTERRES
   111   56   58 2    
   112   57  112 1    
   113   57  113 1    
   114   59   60 1    
   115   59  114 1    
   116   59  115 1    
   117   60   61 1    
   118   61  116 1    
   119   61  117 1    
@<TRIPOS>SUBSTRUCTURE
     1 UNK         1 GROUP             0       ****    0 ROOT    
