@<TRIPOS>MOLECULE
3R8
117   119    1
SMALL
USER_CHARGES


@<TRIPOS>ATOM
      1 CA         12.4883  -24.3210  -42.1239 C.3       0 UNK        -0.2013 
      2 C          13.4869  -25.4301  -42.4201 C.2       0 UNK         0.4866 
      3 O          13.1077  -26.4650  -42.9690 O.2       0 UNK        -0.5176 
      4 N          14.7585  -25.2223  -42.0643 N.am      1 UNK        -0.4884 
      5 CA         15.8681  -26.1443  -42.3070 C.3       1 UNK         0.0853 
      6 C6         15.8665  -27.3518  -41.3195 C.3       10 UNK        -0.0849 
      7 S7         16.9589  -28.7808  -41.6898 S.3       10 UNK        -0.2776 
      8 C8         17.1525  -28.7981  -43.5022 C.3       10 UNK         0.0316 
      9 C9         18.1178  -29.8913  -43.9318 C.ar      10 UNK        -0.0863 
     10 C10        17.6563  -31.1928  -44.1389 C.ar      10 UNK        -0.1009 
     11 C11        18.5330  -32.1970  -44.5559 C.ar      10 UNK        -0.0712 
     12 C12        19.8829  -31.8879  -44.7573 C.ar      10 UNK        -0.0894 
     13 C13        20.3699  -30.5957  -44.5346 C.ar      10 UNK        -0.0745 
     14 C14        19.4708  -29.5986  -44.1325 C.ar      10 UNK        -0.0972 
     15 C15        21.8617  -30.3346  -44.7664 C.3       10 UNK         0.0209 
     16 S16        22.5554  -28.8573  -43.9442 S.3       10 UNK        -0.2568 
     17 C17        22.1901  -27.5734  -45.1986 C.3       10 UNK        -0.0983 
     18 CA         22.3245  -26.1077  -44.6954 C.3       3 UNK         0.0876 
     19 N          21.5628  -25.8421  -43.4792 N.am      3 UNK        -0.4424 
     20 C          20.2369  -25.7351  -43.3949 C.2       2 UNK         0.4918 
     21 O          19.4835  -25.8315  -44.3660 O.2       2 UNK        -0.4875 
     22 CA         19.6801  -25.5084  -41.9770 C.3       2 UNK         0.0481 
     23 CB         19.9150  -24.0632  -41.4918 C.3       2 UNK        -0.1831 
     24 N          18.2747  -25.9165  -41.8627 N.am      2 UNK        -0.4498 
     25 C          17.1746  -25.3211  -42.3463 C.2       1 UNK         0.5027 
     26 O          17.1517  -24.1834  -42.8231 O.2       1 UNK        -0.4969 
     27 C          23.7845  -25.7159  -44.4230 C.2       3 UNK         0.5005 
     28 O          24.1741  -25.5992  -43.2570 O.2       3 UNK        -0.5279 
     29 N          24.5797  -25.5576  -45.4909 N.am      4 UNK        -0.4463 
     30 CA         26.0090  -25.2205  -45.4279 C.3       4 UNK         0.0283 
     31 CB         26.5370  -24.9669  -46.8491 C.3       4 UNK        -0.1875 
     32 C          26.8717  -26.2808  -44.7165 C.2       4 UNK         0.4949 
     33 O          27.9060  -25.9351  -44.1459 O.2       4 UNK        -0.5039 
     34 N          26.4211  -27.5429  -44.7429 N.am      5 UNK        -0.4663 
     35 CA         27.0226  -28.6583  -44.0087 C.3       5 UNK         0.0242 
     36 CB         26.5372  -29.9791  -44.6305 C.3       5 UNK        -0.1982 
     37 C          26.7064  -28.6353  -42.5012 C.2       5 UNK         0.5017 
     38 O          27.4088  -29.2994  -41.7392 O.2       5 UNK        -0.5012 
     39 N          25.6452  -27.9111  -42.1061 N.am      6 UNK        -0.4439 
     40 CA         25.0904  -27.7832  -40.7507 C.3       6 UNK         0.0297 
     41 CB         26.0749  -27.0310  -39.8310 C.3       6 UNK        -0.2006 
     42 C          24.6021  -29.1109  -40.1308 C.2       6 UNK         0.4892 
     43 O          24.4643  -29.1948  -38.9093 O.2       6 UNK        -0.5089 
     44 N          24.3505  -30.1234  -40.9724 N.am      7 UNK        -0.4243 
     45 CA         23.9423  -31.4659  -40.5584 C.3       7 UNK         0.0196 
     46 CB         24.2446  -32.4609  -41.6910 C.3       7 UNK        -0.2007 
     47 C          22.4626  -31.5394  -40.1590 C.2       7 UNK         0.5020 
     48 O          22.1255  -32.2779  -39.2328 O.2       7 UNK        -0.5147 
     49 N          21.6055  -30.8059  -40.8886 N.am      8 UNK        -0.4734 
     50 CA         20.1452  -30.7095  -40.7170 C.3       8 UNK         0.0238 
     51 CB         19.8175  -29.9558  -39.4106 C.3       8 UNK        -0.1912 
     52 C          19.3872  -32.0544  -40.8165 C.2       8 UNK         0.5038 
     53 O          18.2495  -32.1429  -40.3516 O.2       8 UNK        -0.5046 
     54 N          20.0404  -33.0832  -41.3790 N.am      9 UNK        -0.4200 
     55 CA         19.6291  -34.4965  -41.3434 C.3       9 UNK         0.0839 
     56 C          19.4759  -35.0778  -39.9011 C.2       9 UNK         0.5513 
     57 N          20.1751  -34.5459  -38.9039 N.am      9 UNK        -0.7519 
     58 O          18.7472  -36.0421  -39.6806 O.2       9 UNK        -0.4960 
     59 C59        18.4281  -34.7977  -42.2882 C.3       10 UNK        -0.0876 
     60 S60        18.9656  -34.9138  -44.0283 S.3       10 UNK        -0.2414 
     61 C61        18.0036  -33.5975  -44.8396 C.3       10 UNK         0.0169 
     62 H62        12.9584  -23.4685  -41.6339 H         1 UNK         0.0903 
     63 H63        12.0313  -23.9707  -43.0490 H         1 UNK         0.0903 
     64 H64        11.6977  -24.6925  -41.4725 H         1 UNK         0.0903 
     65 H65        15.0360  -24.3287  -41.6778 H         1 UNK         0.3096 
     66 H66        15.7295  -26.5202  -43.3216 H         1 UNK         0.1121 
     67 H67        14.8576  -27.7628  -41.2622 H         1 UNK         0.0849 
     68 H68        16.0859  -27.0069  -40.3072 H         1 UNK         0.0849 
     69 H69        16.1792  -28.9504  -43.9716 H         1 UNK         0.0865 
     70 H70        17.5263  -27.8396  -43.8618 H         1 UNK         0.0865 
     71 H71        16.6097  -31.4188  -43.9856 H         1 UNK         0.1346 
     72 H72        20.5588  -32.6636  -45.0908 H         1 UNK         0.1412 
     73 H73        19.8136  -28.5897  -43.9623 H         1 UNK         0.1426 
     74 H74        22.0480  -30.2712  -45.8393 H         1 UNK         0.0716 
     75 H75        22.4282  -31.1967  -44.4127 H         1 UNK         0.0716 
     76 H76        21.1779  -27.7279  -45.5728 H         1 UNK         0.0695 
     77 H77        22.8358  -27.7452  -46.0614 H         1 UNK         0.0695 
     78 H78        21.9552  -25.4349  -45.4728 H         1 UNK         0.0983 
     79 H79        22.1486  -25.7214  -42.6618 H         1 UNK         0.3095 
     80 H80        20.2262  -26.1757  -41.3081 H         1 UNK         0.0454 
     81 H81        19.5066  -23.3262  -42.1836 H         1 UNK         0.0851 
     82 H82        20.9807  -23.8526  -41.3965 H         1 UNK         0.0851 
     83 H83        19.4645  -23.8933  -40.5141 H         1 UNK         0.0851 
     84 H84        18.1413  -26.8572  -41.5107 H         1 UNK         0.2976 
     85 H85        24.1855  -25.6720  -46.4145 H         1 UNK         0.3116 
     86 H86        26.1034  -24.2931  -44.8589 H         1 UNK         0.0646 
     87 H87        26.4478  -25.8531  -47.4787 H         1 UNK         0.0847 
     88 H88        27.5915  -24.6878  -46.8291 H         1 UNK         0.0847 
     89 H89        25.9993  -24.1524  -47.3347 H         1 UNK         0.0847 
     90 H90        25.5721  -27.7370  -45.2537 H         1 UNK         0.3040 
     91 H91        28.1085  -28.6038  -44.1156 H         1 UNK         0.1015 
     92 H92        25.4536  -30.0857  -44.5643 H         1 UNK         0.0786 
     93 H93        26.9801  -30.8370  -44.1223 H         1 UNK         0.0786 
     94 H94        26.8176  -30.0488  -45.6816 H         1 UNK         0.0786 
     95 H95        25.1668  -27.3534  -42.8058 H         1 UNK         0.3172 
     96 H96        24.1999  -27.1618  -40.8545 H         1 UNK         0.0595 
     97 H97        26.9696  -27.6204  -39.6280 H         1 UNK         0.0839 
     98 H98        25.6153  -26.7969  -38.8700 H         1 UNK         0.0839 
     99 H99        26.3883  -26.0865  -40.2758 H         1 UNK         0.0839 
    100 H100       24.4836  -29.9628  -41.9598 H         1 UNK         0.2998 
    101 H101       24.5351  -31.7540  -39.6871 H         1 UNK         0.0822 
    102 H102       23.9707  -33.4765  -41.4013 H         1 UNK         0.0787 
    103 H103       23.6959  -32.2218  -42.6021 H         1 UNK         0.0787 
    104 H104       25.3075  -32.4711  -41.9340 H         1 UNK         0.0787 
    105 H105       21.9902  -30.2490  -41.6401 H         1 UNK         0.3055 
    106 H106       19.7759  -30.1003  -41.5391 H         1 UNK         0.1106 
    107 H107       18.7483  -29.7577  -39.3273 H         1 UNK         0.0828 
    108 H108       20.1104  -30.5280  -38.5300 H         1 UNK         0.0828 
    109 H109       20.3258  -28.9925  -39.3706 H         1 UNK         0.0828 
    110 H110       20.9678  -32.9080  -41.7328 H         1 UNK         0.2931 
    111 H111       20.4877  -35.0465  -41.7308 H         1 UNK         0.0412 
    112 H112       20.0828  -34.9313  -37.9775 H         1 UNK         0.3472 
    113 H113       20.7977  -33.7599  -39.0637 H         1 UNK         0.3472 
    114 H114       17.9636  -35.7564  -42.0535 H         1 UNK         0.0970 
    115 H115       17.6404  -34.0518  -42.1743 H         1 UNK         0.0970 
    116 H116       16.9567  -33.6912  -44.5469 H         1 UNK         0.0612 
    117 H117       18.0359  -33.7627  -45.9172 H         1 UNK         0.0612 
@<TRIPOS>BOND
     1    1    2 1    
     2    1   62 1    
     3    1   63 1    
     4    1   64 1    
     5    2    3 2    
     6    2    4 am   BACKBONE|DICT|INTERRES
     7    4    5 1    
     8    4   65 1    
     9    5    6 1    
    10    5   25 1    
    11    5   66 1    
    12    6    7 1    
    13    6   67 1    
    14    6   68 1    
    15    7    8 1    
    16    8    9 1    
    17    8   69 1    
    18    8   70 1    
    19    9   10 ar   
    20    9   14 ar   
    21   10   11 ar   
    22   10   71 1    
    23   11   12 ar   
    24   11   61 1    
    25   12   13 ar   
    26   12   72 1    
    27   13   14 ar   
    28   13   15 1    
    29   14   73 1    
    30   15   16 1    
    31   15   74 1    
    32   15   75 1    
    33   16   17 1    
    34   17   18 1    
    35   17   76 1    
    36   17   77 1    
    37   18   19 1    
    38   18   27 1    
    39   18   78 1    
    40   19   20 am   BACKBONE|DICT|INTERRES
    41   19   79 1    
    42   20   21 2    
    43   20   22 1    
    44   22   23 1    
    45   22   24 1    
    46   22   80 1    
    47   23   81 1    
    48   23   82 1    
    49   23   83 1    
    50   24   25 am   BACKBONE|DICT|INTERRES
    51   24   84 1    
    52   25   26 2    
    53   27   28 2    
    54   27   29 am   BACKBONE|DICT|INTERRES
    55   29   30 1    
    56   29   85 1    
    57   30   31 1    
    58   30   32 1    
    59   30   86 1    
    60   31   87 1    
    61   31   88 1    
    62   31   89 1    
    63   32   33 2    
    64   32   34 am   BACKBONE|DICT|INTERRES
    65   34   35 1    
    66   34   90 1    
    67   35   36 1    
    68   35   37 1    
    69   35   91 1    
    70   36   92 1    
    71   36   93 1    
    72   36   94 1    
    73   37   38 2    
    74   37   39 am   BACKBONE|DICT|INTERRES
    75   39   40 1    
    76   39   95 1    
    77   40   41 1    
    78   40   42 1    
    79   40   96 1    
    80   41   97 1    
    81   41   98 1    
    82   41   99 1    
    83   42   43 2    
    84   42   44 am   BACKBONE|DICT|INTERRES
    85   44   45 1    
    86   44  100 1    
    87   45   46 1    
    88   45   47 1    
    89   45  101 1    
    90   46  102 1    
    91   46  103 1    
    92   46  104 1    
    93   47   48 2    
    94   47   49 am   BACKBONE|DICT|INTERRES
    95   49   50 1    
    96   49  105 1    
    97   50   51 1    
    98   50   52 1    
    99   50  106 1    
   100   51  107 1    
   101   51  108 1    
   102   51  109 1    
   103   52   53 2    
   104   52   54 am   BACKBONE|DICT|INTERRES
   105   54   55 1    
   106   54  110 1    
   107   55   56 1    
   108   55   59 1    
   109   55  111 1    
   110   56   57 am   BACKBONE|DICT|INTERRES
   111   56   58 2    
   112   57  112 1    
   113   57  113 1    
   114   59   60 1    
   115   59  114 1    
   116   59  115 1    
   117   60   61 1    
   118   61  116 1    
   119   61  117 1    
@<TRIPOS>SUBSTRUCTURE
     1 UNK         1 GROUP             0       ****    0 ROOT    
