@<TRIPOS>MOLECULE
3R8
117   119    1
SMALL
USER_CHARGES


@<TRIPOS>ATOM
      1 CA         22.0758  -26.3336  -49.3740 C.3       0 UNK        -0.2013 
      2 C          21.1668  -25.1078  -49.4023 C.2       0 UNK         0.4866 
      3 O          21.1920  -24.3586  -50.3771 O.2       0 UNK        -0.5176 
      4 N          20.3557  -24.8554  -48.3689 N.am      1 UNK        -0.4884 
      5 CA         20.2356  -25.6138  -47.1251 C.3       1 UNK         0.0853 
      6 C6         19.2010  -26.7637  -47.2573 C.3       10 UNK        -0.0849 
      7 S7         19.2997  -27.9508  -45.8787 S.3       10 UNK        -0.2776 
      8 C8         17.7871  -28.9297  -46.1351 C.3       10 UNK         0.0316 
      9 C9         17.4347  -29.6732  -44.8579 C.ar      10 UNK        -0.0863 
     10 C10        18.0097  -30.9186  -44.5806 C.ar      10 UNK        -0.1009 
     11 C11        17.7549  -31.5583  -43.3634 C.ar      10 UNK        -0.0712 
     12 C12        16.9197  -30.9456  -42.4263 C.ar      10 UNK        -0.0894 
     13 C13        16.3624  -29.6903  -42.6828 C.ar      10 UNK        -0.0745 
     14 C14        16.5895  -29.0754  -43.9175 C.ar      10 UNK        -0.0972 
     15 C15        15.6054  -28.9625  -41.5830 C.3       10 UNK         0.0209 
     16 S16        16.7234  -28.5209  -40.2070 S.3       10 UNK        -0.2568 
     17 C17        17.6647  -27.0976  -40.8675 C.3       10 UNK        -0.0983 
     18 CA         18.8504  -27.4485  -41.8174 C.3       3 UNK         0.0876 
     19 N          19.1768  -26.3507  -42.7323 N.am      3 UNK        -0.4424 
     20 C          19.6363  -25.1357  -42.3978 C.2       2 UNK         0.4918 
     21 O          19.8187  -24.7667  -41.2368 O.2       2 UNK        -0.4875 
     22 CA         19.9364  -24.1721  -43.5620 C.3       2 UNK         0.0481 
     23 CB         21.0414  -23.1518  -43.2290 C.3       2 UNK        -0.1831 
     24 N          20.2862  -24.9098  -44.7795 N.am      2 UNK        -0.4498 
     25 C          19.8529  -24.6197  -46.0124 C.2       1 UNK         0.5027 
     26 O          19.1601  -23.6357  -46.2889 O.2       1 UNK        -0.4969 
     27 C          20.1024  -28.0435  -41.1386 C.2       3 UNK         0.5005 
     28 O          21.2289  -27.7332  -41.5380 O.2       3 UNK        -0.5279 
     29 N          19.8898  -28.9406  -40.1665 N.am      4 UNK        -0.4463 
     30 CA         20.8952  -29.8109  -39.5421 C.3       4 UNK         0.0283 
     31 CB         20.2102  -30.7140  -38.5051 C.3       4 UNK        -0.1875 
     32 C          22.1043  -29.0942  -38.9173 C.2       4 UNK         0.4949 
     33 O          23.1625  -29.7090  -38.7965 O.2       4 UNK        -0.5039 
     34 N          21.9524  -27.8063  -38.5810 N.am      5 UNK        -0.4663 
     35 CA         23.0353  -26.9201  -38.1462 C.3       5 UNK         0.0242 
     36 CB         22.4337  -25.5746  -37.7092 C.3       5 UNK        -0.1982 
     37 C          24.1233  -26.6978  -39.2166 C.2       5 UNK         0.5017 
     38 O          25.2664  -26.4214  -38.8509 O.2       5 UNK        -0.5012 
     39 N          23.7563  -26.8236  -40.4998 N.am      6 UNK        -0.4439 
     40 CA         24.6568  -26.7141  -41.6482 C.3       6 UNK         0.0297 
     41 CB         24.1723  -25.5761  -42.5610 C.3       6 UNK        -0.2006 
     42 C          24.7297  -28.0295  -42.4380 C.2       6 UNK         0.4892 
     43 O          25.8175  -28.4096  -42.8719 O.2       6 UNK        -0.5089 
     44 N          23.5797  -28.6896  -42.6323 N.am      7 UNK        -0.4243 
     45 CA         23.4350  -29.8811  -43.4706 C.3       7 UNK         0.0196 
     46 CB         21.9626  -30.0119  -43.8953 C.3       7 UNK        -0.2007 
     47 C          23.9052  -31.1826  -42.8037 C.2       7 UNK         0.5020 
     48 O          24.1366  -32.1581  -43.5189 O.2       7 UNK        -0.5147 
     49 N          23.9913  -31.2056  -41.4644 N.am      8 UNK        -0.4734 
     50 CA         24.2953  -32.3450  -40.5795 C.3       8 UNK         0.0238 
     51 CB         25.6920  -32.9328  -40.8614 C.3       8 UNK        -0.1912 
     52 C          23.2169  -33.4469  -40.5641 C.2       8 UNK         0.5038 
     53 O          22.8633  -33.9216  -39.4842 O.2       8 UNK        -0.5046 
     54 N          22.7080  -33.8142  -41.7465 N.am      9 UNK        -0.4200 
     55 CA         21.6100  -34.7645  -41.9945 C.3       9 UNK         0.0839 
     56 C          21.9469  -36.2500  -41.6631 C.2       9 UNK         0.5513 
     57 N          23.2147  -36.6270  -41.5312 N.am      9 UNK        -0.7519 
     58 O          21.0512  -37.0837  -41.5547 O.2       9 UNK        -0.4960 
     59 C59        20.2540  -34.3039  -41.3840 C.3       10 UNK        -0.0876 
     60 S60        19.7980  -32.6010  -41.8607 S.3       10 UNK        -0.2414 
     61 C61        18.4241  -32.8791  -43.0188 C.3       10 UNK         0.0169 
     62 H62        22.9044  -26.1777  -48.6839 H         1 UNK         0.0903 
     63 H63        21.5356  -27.2308  -49.0760 H         1 UNK         0.0903 
     64 H64        22.4958  -26.5185  -50.3625 H         1 UNK         0.0903 
     65 H65        19.7913  -24.0137  -48.3728 H         1 UNK         0.3096 
     66 H66        21.2127  -26.0294  -46.8697 H         1 UNK         0.1121 
     67 H67        18.1871  -26.3639  -47.3281 H         1 UNK         0.0849 
     68 H68        19.3637  -27.3221  -48.1799 H         1 UNK         0.0849 
     69 H69        16.9621  -28.2778  -46.4269 H         1 UNK         0.0865 
     70 H70        17.9372  -29.6297  -46.9585 H         1 UNK         0.0865 
     71 H71        18.6838  -31.3704  -45.2957 H         1 UNK         0.1346 
     72 H72        16.7565  -31.4180  -41.4670 H         1 UNK         0.1412 
     73 H73        16.1745  -28.0961  -44.1149 H         1 UNK         0.1426 
     74 H74        15.1138  -28.0655  -41.9627 H         1 UNK         0.0716 
     75 H75        14.8152  -29.6120  -41.2036 H         1 UNK         0.0716 
     76 H76        18.0192  -26.5004  -40.0256 H         1 UNK         0.0695 
     77 H77        16.9496  -26.4614  -41.3917 H         1 UNK         0.0695 
     78 H78        18.5415  -28.2496  -42.4788 H         1 UNK         0.0983 
     79 H79        19.0709  -26.5669  -43.7136 H         1 UNK         0.3095 
     80 H80        19.0091  -23.6196  -43.7269 H         1 UNK         0.0454 
     81 H81        21.2046  -22.4612  -44.0562 H         1 UNK         0.0851 
     82 H82        20.7738  -22.5515  -42.3585 H         1 UNK         0.0851 
     83 H83        21.9894  -23.6405  -43.0088 H         1 UNK         0.0851 
     84 H84        20.8544  -25.7355  -44.6440 H         1 UNK         0.2976 
     85 H85        18.9251  -29.1173  -39.9126 H         1 UNK         0.3116 
     86 H86        21.2898  -30.4499  -40.3340 H         1 UNK         0.0646 
     87 H87        19.4249  -31.3177  -38.9606 H         1 UNK         0.0847 
     88 H88        20.9254  -31.4061  -38.0578 H         1 UNK         0.0847 
     89 H89        19.7644  -30.1340  -37.6962 H         1 UNK         0.0847 
     90 H90        21.0470  -27.3835  -38.7264 H         1 UNK         0.3040 
     91 H91        23.5191  -27.3819  -37.2825 H         1 UNK         0.1015 
     92 H92        21.9143  -25.0793  -38.5312 H         1 UNK         0.0786 
     93 H93        23.2113  -24.8947  -37.3581 H         1 UNK         0.0786 
     94 H94        21.7247  -25.7028  -36.8911 H         1 UNK         0.0786 
     95 H95        22.7891  -27.0658  -40.7029 H         1 UNK         0.3172 
     96 H96        25.6702  -26.4749  -41.3194 H         1 UNK         0.0595 
     97 H97        23.1632  -25.7602  -42.9316 H         1 UNK         0.0839 
     98 H98        24.8248  -25.4646  -43.4281 H         1 UNK         0.0839 
     99 H99        24.1681  -24.6223  -42.0334 H         1 UNK         0.0839 
    100 H100       22.7163  -28.3056  -42.2496 H         1 UNK         0.2998 
    101 H101       24.0361  -29.7429  -44.3721 H         1 UNK         0.0822 
    102 H102       21.8197  -30.8570  -44.5701 H         1 UNK         0.0787 
    103 H103       21.3059  -30.1681  -43.0388 H         1 UNK         0.0787 
    104 H104       21.6220  -29.1191  -44.4185 H         1 UNK         0.0787 
    105 H105       23.7637  -30.3499  -40.9743 H         1 UNK         0.3055 
    106 H106       24.3211  -31.9335  -39.5693 H         1 UNK         0.1106 
    107 H107       25.9450  -33.6983  -40.1267 H         1 UNK         0.0828 
    108 H108       25.7540  -33.3981  -41.8453 H         1 UNK         0.0828 
    109 H109       26.4625  -32.1640  -40.8054 H         1 UNK         0.0828 
    110 H110       23.1024  -33.3662  -42.5694 H         1 UNK         0.2931 
    111 H111       21.4807  -34.7555  -43.0773 H         1 UNK         0.0412 
    112 H112       23.9592  -35.9558  -41.6306 H         1 UNK         0.3472 
    113 H113       23.4270  -37.5914  -41.3283 H         1 UNK         0.3472 
    114 H114       19.4516  -34.9816  -41.6799 H         1 UNK         0.0970 
    115 H115       20.2944  -34.3509  -40.2946 H         1 UNK         0.0970 
    116 H116       18.7995  -33.3734  -43.9161 H         1 UNK         0.0612 
    117 H117       17.6919  -33.5510  -42.5687 H         1 UNK         0.0612 
@<TRIPOS>BOND
     1    1    2 1    
     2    1   62 1    
     3    1   63 1    
     4    1   64 1    
     5    2    3 2    
     6    2    4 am   BACKBONE|DICT|INTERRES
     7    4    5 1    
     8    4   65 1    
     9    5    6 1    
    10    5   25 1    
    11    5   66 1    
    12    6    7 1    
    13    6   67 1    
    14    6   68 1    
    15    7    8 1    
    16    8    9 1    
    17    8   69 1    
    18    8   70 1    
    19    9   10 ar   
    20    9   14 ar   
    21   10   11 ar   
    22   10   71 1    
    23   11   12 ar   
    24   11   61 1    
    25   12   13 ar   
    26   12   72 1    
    27   13   14 ar   
    28   13   15 1    
    29   14   73 1    
    30   15   16 1    
    31   15   74 1    
    32   15   75 1    
    33   16   17 1    
    34   17   18 1    
    35   17   76 1    
    36   17   77 1    
    37   18   19 1    
    38   18   27 1    
    39   18   78 1    
    40   19   20 am   BACKBONE|DICT|INTERRES
    41   19   79 1    
    42   20   21 2    
    43   20   22 1    
    44   22   23 1    
    45   22   24 1    
    46   22   80 1    
    47   23   81 1    
    48   23   82 1    
    49   23   83 1    
    50   24   25 am   BACKBONE|DICT|INTERRES
    51   24   84 1    
    52   25   26 2    
    53   27   28 2    
    54   27   29 am   BACKBONE|DICT|INTERRES
    55   29   30 1    
    56   29   85 1    
    57   30   31 1    
    58   30   32 1    
    59   30   86 1    
    60   31   87 1    
    61   31   88 1    
    62   31   89 1    
    63   32   33 2    
    64   32   34 am   BACKBONE|DICT|INTERRES
    65   34   35 1    
    66   34   90 1    
    67   35   36 1    
    68   35   37 1    
    69   35   91 1    
    70   36   92 1    
    71   36   93 1    
    72   36   94 1    
    73   37   38 2    
    74   37   39 am   BACKBONE|DICT|INTERRES
    75   39   40 1    
    76   39   95 1    
    77   40   41 1    
    78   40   42 1    
    79   40   96 1    
    80   41   97 1    
    81   41   98 1    
    82   41   99 1    
    83   42   43 2    
    84   42   44 am   BACKBONE|DICT|INTERRES
    85   44   45 1    
    86   44  100 1    
    87   45   46 1    
    88   45   47 1    
    89   45  101 1    
    90   46  102 1    
    91   46  103 1    
    92   46  104 1    
    93   47   48 2    
    94   47   49 am   BACKBONE|DICT|INTERRES
    95   49   50 1    
    96   49  105 1    
    97   50   51 1    
    98   50   52 1    
    99   50  106 1    
   100   51  107 1    
   101   51  108 1    
   102   51  109 1    
   103   52   53 2    
   104   52   54 am   BACKBONE|DICT|INTERRES
   105   54   55 1    
   106   54  110 1    
   107   55   56 1    
   108   55   59 1    
   109   55  111 1    
   110   56   57 am   BACKBONE|DICT|INTERRES
   111   56   58 2    
   112   57  112 1    
   113   57  113 1    
   114   59   60 1    
   115   59  114 1    
   116   59  115 1    
   117   60   61 1    
   118   61  116 1    
   119   61  117 1    
@<TRIPOS>SUBSTRUCTURE
     1 UNK         1 GROUP             0       ****    0 ROOT    
