@<TRIPOS>MOLECULE
3R8
117   119    1
SMALL
USER_CHARGES


@<TRIPOS>ATOM
      1 CA         11.6064  -24.3812  -44.9583 C.3       0 UNK        -0.2013 
      2 C          12.7227  -24.4718  -45.9881 C.2       0 UNK         0.4866 
      3 O          12.4550  -24.4212  -47.1891 O.2       0 UNK        -0.5176 
      4 N          13.9705  -24.6002  -45.5295 N.am      1 UNK        -0.4884 
      5 CA         15.1747  -24.6952  -46.3533 C.3       1 UNK         0.0853 
      6 C6         15.3654  -26.1029  -46.9875 C.3       10 UNK        -0.0849 
      7 S7         15.4066  -27.4828  -45.7865 S.3       10 UNK        -0.2776 
      8 C8         17.1875  -27.8494  -45.7615 C.3       10 UNK         0.0316 
      9 C9         17.5727  -28.7003  -44.5621 C.ar      10 UNK        -0.0863 
     10 C10        17.9882  -30.0240  -44.7335 C.ar      10 UNK        -0.1009 
     11 C11        18.3931  -30.7881  -43.6343 C.ar      10 UNK        -0.0712 
     12 C12        18.3807  -30.2179  -42.3579 C.ar      10 UNK        -0.0894 
     13 C13        17.9780  -28.8918  -42.1765 C.ar      10 UNK        -0.0745 
     14 C14        17.5569  -28.1442  -43.2798 C.ar      10 UNK        -0.0972 
     15 C15        18.0195  -28.2665  -40.7907 C.3       10 UNK         0.0209 
     16 S16        19.6023  -27.4105  -40.4979 S.3       10 UNK        -0.2568 
     17 C17        19.3270  -25.8101  -41.3334 C.3       10 UNK        -0.0983 
     18 CA         20.0026  -25.7299  -42.7270 C.3       3 UNK         0.0876 
     19 N          19.3990  -24.6789  -43.5433 N.am      3 UNK        -0.4424 
     20 C          19.4481  -24.6262  -44.8782 C.2       2 UNK         0.4918 
     21 O          19.9971  -25.4763  -45.5815 O.2       2 UNK        -0.4875 
     22 CA         18.7307  -23.4401  -45.5434 C.3       2 UNK         0.0481 
     23 CB         19.6267  -22.7681  -46.5978 C.3       2 UNK        -0.1831 
     24 N          17.4798  -23.8706  -46.1720 N.am      2 UNK        -0.4498 
     25 C          16.3778  -24.2416  -45.5048 C.2       1 UNK         0.5027 
     26 O          16.2873  -24.2294  -44.2727 O.2       1 UNK        -0.4969 
     27 C          21.5269  -25.5225  -42.6445 C.2       3 UNK         0.5005 
     28 O          21.9876  -24.6706  -41.8809 O.2       3 UNK        -0.5279 
     29 N          22.2794  -26.2907  -43.4452 N.am      4 UNK        -0.4463 
     30 CA         23.7450  -26.3258  -43.4160 C.3       4 UNK         0.0283 
     31 CB         24.2677  -27.0111  -44.6891 C.3       4 UNK        -0.1875 
     32 C          24.2893  -27.0336  -42.1625 C.2       4 UNK         0.4949 
     33 O          25.3624  -26.6691  -41.6831 O.2       4 UNK        -0.5039 
     34 N          23.5333  -28.0268  -41.6652 N.am      5 UNK        -0.4663 
     35 CA         23.7694  -28.8126  -40.4461 C.3       5 UNK         0.0242 
     36 CB         23.6114  -27.9249  -39.1939 C.3       5 UNK        -0.1982 
     37 C          25.0902  -29.6103  -40.4408 C.2       5 UNK         0.5017 
     38 O          25.6064  -29.9200  -39.3651 O.2       5 UNK        -0.5012 
     39 N          25.5961  -29.9662  -41.6313 N.am      6 UNK        -0.4439 
     40 CA         26.8026  -30.7720  -41.8413 C.3       6 UNK         0.0297 
     41 CB         27.1252  -30.8177  -43.3443 C.3       6 UNK        -0.2006 
     42 C          26.6168  -32.1851  -41.2673 C.2       6 UNK         0.4892 
     43 O          25.8416  -32.9629  -41.8264 O.2       6 UNK        -0.5089 
     44 N          27.2549  -32.4488  -40.1175 N.am      7 UNK        -0.4243 
     45 CA         27.0696  -33.6322  -39.2634 C.3       7 UNK         0.0196 
     46 CB         27.6196  -34.8984  -39.9551 C.3       7 UNK        -0.2007 
     47 C          25.6094  -33.7941  -38.7842 C.2       7 UNK         0.5020 
     48 O          25.1088  -34.9164  -38.7074 O.2       7 UNK        -0.5147 
     49 N          24.9492  -32.6574  -38.5051 N.am      8 UNK        -0.4734 
     50 CA         23.5184  -32.5053  -38.2018 C.3       8 UNK         0.0238 
     51 CB         23.1361  -33.2326  -36.8943 C.3       8 UNK        -0.1912 
     52 C          22.6106  -32.8792  -39.3932 C.2       8 UNK         0.5038 
     53 O          21.4969  -33.3626  -39.1860 O.2       8 UNK        -0.5046 
     54 N          23.1056  -32.6315  -40.6145 N.am      9 UNK        -0.4200 
     55 CA         22.5110  -33.0157  -41.9006 C.3       9 UNK         0.0839 
     56 C          22.6057  -34.5509  -42.1209 C.2       9 UNK         0.5513 
     57 N          23.8203  -35.0824  -42.1699 N.am      9 UNK        -0.7519 
     58 O          21.6071  -35.2580  -42.2327 O.2       9 UNK        -0.4960 
     59 C59        21.1066  -32.3949  -42.1411 C.3       10 UNK        -0.0876 
     60 S60        20.6683  -32.3379  -43.9127 S.3       10 UNK        -0.2414 
     61 C61        18.8535  -32.2248  -43.8307 C.3       10 UNK         0.0169 
     62 H62        11.9869  -24.4418  -43.9388 H         1 UNK         0.0903 
     63 H63        11.0717  -23.4378  -45.0656 H         1 UNK         0.0903 
     64 H64        10.8959  -25.1946  -45.1034 H         1 UNK         0.0903 
     65 H65        14.1657  -24.6012  -44.5350 H         1 UNK         0.3096 
     66 H66        15.0779  -23.9667  -47.1620 H         1 UNK         0.1121 
     67 H67        16.2620  -26.1261  -47.6095 H         1 UNK         0.0849 
     68 H68        14.5415  -26.2981  -47.6756 H         1 UNK         0.0849 
     69 H69        17.4663  -28.3403  -46.6953 H         1 UNK         0.0865 
     70 H70        17.7534  -26.9199  -45.7249 H         1 UNK         0.0865 
     71 H71        18.0093  -30.4578  -45.7241 H         1 UNK         0.1346 
     72 H72        18.7008  -30.8018  -41.5062 H         1 UNK         0.1412 
     73 H73        17.2406  -27.1178  -43.1486 H         1 UNK         0.1426 
     74 H74        17.8989  -29.0413  -40.0320 H         1 UNK         0.0716 
     75 H75        17.1828  -27.5801  -40.6529 H         1 UNK         0.0716 
     76 H76        19.6702  -25.0084  -40.6768 H         1 UNK         0.0695 
     77 H77        18.2515  -25.6561  -41.4314 H         1 UNK         0.0695 
     78 H78        19.8245  -26.6791  -43.2354 H         1 UNK         0.0983 
     79 H79        18.9239  -23.9409  -43.0439 H         1 UNK         0.3095 
     80 H80        18.4966  -22.6934  -44.7814 H         1 UNK         0.0454 
     81 H81        19.8726  -23.4464  -47.4160 H         1 UNK         0.0851 
     82 H82        20.5679  -22.4388  -46.1556 H         1 UNK         0.0851 
     83 H83        19.1459  -21.8879  -47.0250 H         1 UNK         0.0851 
     84 H84        17.4851  -23.9282  -47.1805 H         1 UNK         0.2976 
     85 H85        21.8186  -26.9044  -44.1036 H         1 UNK         0.3116 
     86 H86        24.1147  -25.2980  -43.4058 H         1 UNK         0.0646 
     87 H87        23.9206  -28.0419  -44.7699 H         1 UNK         0.0847 
     88 H88        25.3585  -27.0331  -44.6996 H         1 UNK         0.0847 
     89 H89        23.9486  -26.4784  -45.5852 H         1 UNK         0.0847 
     90 H90        22.6733  -28.2351  -42.1530 H         1 UNK         0.3040 
     91 H91        22.9755  -29.5605  -40.4131 H         1 UNK         0.1015 
     92 H92        24.4091  -27.1850  -39.1208 H         1 UNK         0.0786 
     93 H93        23.6355  -28.5211  -38.2808 H         1 UNK         0.0786 
     94 H94        22.6603  -27.3919  -39.2043 H         1 UNK         0.0786 
     95 H95        25.0947  -29.6795  -42.4588 H         1 UNK         0.3172 
     96 H96        27.6336  -30.2826  -41.3289 H         1 UNK         0.0595 
     97 H97        28.0211  -31.4111  -43.5316 H         1 UNK         0.0839 
     98 H98        27.3101  -29.8195  -43.7419 H         1 UNK         0.0839 
     99 H99        26.3140  -31.2642  -43.9213 H         1 UNK         0.0839 
    100 H100       27.8360  -31.7194  -39.7260 H         1 UNK         0.2998 
    101 H101       27.6648  -33.4618  -38.3650 H         1 UNK         0.0822 
    102 H102       27.6058  -35.7518  -39.2761 H         1 UNK         0.0787 
    103 H103       27.0297  -35.1717  -40.8306 H         1 UNK         0.0787 
    104 H104       28.6517  -34.7585  -40.2765 H         1 UNK         0.0787 
    105 H105       25.4516  -31.7809  -38.6225 H         1 UNK         0.3055 
    106 H106       23.3587  -31.4386  -38.0351 H         1 UNK         0.1106 
    107 H107       22.1192  -32.9803  -36.5911 H         1 UNK         0.0828 
    108 H108       23.1794  -34.3165  -37.0028 H         1 UNK         0.0828 
    109 H109       23.7961  -32.9497  -36.0745 H         1 UNK         0.0828 
    110 H110       24.0731  -32.3458  -40.6763 H         1 UNK         0.2931 
    111 H111       23.1746  -32.5716  -42.6446 H         1 UNK         0.0412 
    112 H112       24.6355  -34.4847  -42.0686 H         1 UNK         0.3472 
    113 H113       23.9288  -36.0754  -42.3002 H         1 UNK         0.3472 
    114 H114       21.0871  -31.3703  -41.7678 H         1 UNK         0.0970 
    115 H115       20.3436  -32.9391  -41.5822 H         1 UNK         0.0970 
    116 H116       18.4406  -32.6246  -44.7582 H         1 UNK         0.0612 
    117 H117       18.4692  -32.8608  -43.0320 H         1 UNK         0.0612 
@<TRIPOS>BOND
     1    1    2 1    
     2    1   62 1    
     3    1   63 1    
     4    1   64 1    
     5    2    3 2    
     6    2    4 am   BACKBONE|DICT|INTERRES
     7    4    5 1    
     8    4   65 1    
     9    5    6 1    
    10    5   25 1    
    11    5   66 1    
    12    6    7 1    
    13    6   67 1    
    14    6   68 1    
    15    7    8 1    
    16    8    9 1    
    17    8   69 1    
    18    8   70 1    
    19    9   10 ar   
    20    9   14 ar   
    21   10   11 ar   
    22   10   71 1    
    23   11   12 ar   
    24   11   61 1    
    25   12   13 ar   
    26   12   72 1    
    27   13   14 ar   
    28   13   15 1    
    29   14   73 1    
    30   15   16 1    
    31   15   74 1    
    32   15   75 1    
    33   16   17 1    
    34   17   18 1    
    35   17   76 1    
    36   17   77 1    
    37   18   19 1    
    38   18   27 1    
    39   18   78 1    
    40   19   20 am   BACKBONE|DICT|INTERRES
    41   19   79 1    
    42   20   21 2    
    43   20   22 1    
    44   22   23 1    
    45   22   24 1    
    46   22   80 1    
    47   23   81 1    
    48   23   82 1    
    49   23   83 1    
    50   24   25 am   BACKBONE|DICT|INTERRES
    51   24   84 1    
    52   25   26 2    
    53   27   28 2    
    54   27   29 am   BACKBONE|DICT|INTERRES
    55   29   30 1    
    56   29   85 1    
    57   30   31 1    
    58   30   32 1    
    59   30   86 1    
    60   31   87 1    
    61   31   88 1    
    62   31   89 1    
    63   32   33 2    
    64   32   34 am   BACKBONE|DICT|INTERRES
    65   34   35 1    
    66   34   90 1    
    67   35   36 1    
    68   35   37 1    
    69   35   91 1    
    70   36   92 1    
    71   36   93 1    
    72   36   94 1    
    73   37   38 2    
    74   37   39 am   BACKBONE|DICT|INTERRES
    75   39   40 1    
    76   39   95 1    
    77   40   41 1    
    78   40   42 1    
    79   40   96 1    
    80   41   97 1    
    81   41   98 1    
    82   41   99 1    
    83   42   43 2    
    84   42   44 am   BACKBONE|DICT|INTERRES
    85   44   45 1    
    86   44  100 1    
    87   45   46 1    
    88   45   47 1    
    89   45  101 1    
    90   46  102 1    
    91   46  103 1    
    92   46  104 1    
    93   47   48 2    
    94   47   49 am   BACKBONE|DICT|INTERRES
    95   49   50 1    
    96   49  105 1    
    97   50   51 1    
    98   50   52 1    
    99   50  106 1    
   100   51  107 1    
   101   51  108 1    
   102   51  109 1    
   103   52   53 2    
   104   52   54 am   BACKBONE|DICT|INTERRES
   105   54   55 1    
   106   54  110 1    
   107   55   56 1    
   108   55   59 1    
   109   55  111 1    
   110   56   57 am   BACKBONE|DICT|INTERRES
   111   56   58 2    
   112   57  112 1    
   113   57  113 1    
   114   59   60 1    
   115   59  114 1    
   116   59  115 1    
   117   60   61 1    
   118   61  116 1    
   119   61  117 1    
@<TRIPOS>SUBSTRUCTURE
     1 UNK         1 GROUP             0       ****    0 ROOT    
