@<TRIPOS>MOLECULE
3R8
117   119    1
SMALL
USER_CHARGES


@<TRIPOS>ATOM
      1 CA         12.3271  -25.1227  -40.9527 C.3       0 UNK        -0.2013 
      2 C          13.4479  -25.1734  -41.9804 C.2       0 UNK         0.4866 
      3 O          14.2246  -24.2235  -42.0863 O.2       0 UNK        -0.5176 
      4 N          13.5334  -26.2700  -42.7441 N.am      1 UNK        -0.4884 
      5 CA         14.5912  -26.5190  -43.7286 C.3       1 UNK         0.0853 
      6 C6         14.1686  -27.6249  -44.7257 C.3       10 UNK        -0.0849 
      7 S7         15.0751  -27.5303  -46.3071 S.3       10 UNK        -0.2776 
      8 C8         15.6345  -29.2494  -46.5252 C.3       10 UNK         0.0316 
      9 C9         16.9894  -29.5028  -45.8792 C.ar      10 UNK        -0.0863 
     10 C10        17.0797  -29.9098  -44.5445 C.ar      10 UNK        -0.1009 
     11 C11        18.3239  -30.1926  -43.9719 C.ar      10 UNK        -0.0712 
     12 C12        19.4826  -30.0685  -44.7433 C.ar      10 UNK        -0.0894 
     13 C13        19.4052  -29.6667  -46.0789 C.ar      10 UNK        -0.0745 
     14 C14        18.1571  -29.3769  -46.6381 C.ar      10 UNK        -0.0972 
     15 C15        20.6583  -29.5948  -46.9382 C.3       10 UNK         0.0209 
     16 S16        21.2572  -27.8897  -47.1394 S.3       10 UNK        -0.2568 
     17 C17        22.2622  -27.6420  -45.6391 C.3       10 UNK        -0.0983 
     18 CA         21.7856  -26.4088  -44.8290 C.3       3 UNK         0.0876 
     19 N          20.6217  -26.7157  -44.0011 N.am      3 UNK        -0.4424 
     20 C          19.3819  -26.2623  -44.1938 C.2       2 UNK         0.4918 
     21 O          19.0229  -25.5946  -45.1678 O.2       2 UNK        -0.4875 
     22 CA         18.3867  -26.5685  -43.0687 C.3       2 UNK         0.0481 
     23 CB         18.6426  -25.6664  -41.8452 C.3       2 UNK        -0.1831 
     24 N          17.0314  -26.3661  -43.5668 N.am      2 UNK        -0.4498 
     25 C          15.9178  -26.8603  -43.0188 C.2       1 UNK         0.5027 
     26 O          15.9039  -27.5682  -42.0074 O.2       1 UNK        -0.4969 
     27 C          22.8936  -25.8894  -43.8945 C.2       3 UNK         0.5005 
     28 O          22.8070  -26.0624  -42.6751 O.2       3 UNK        -0.5279 
     29 N          23.9174  -25.2576  -44.4856 N.am      4 UNK        -0.4463 
     30 CA         25.0552  -24.6589  -43.7776 C.3       4 UNK         0.0283 
     31 CB         25.8012  -23.7151  -44.7356 C.3       4 UNK        -0.1875 
     32 C          26.0329  -25.6802  -43.1647 C.2       4 UNK         0.4949 
     33 O          26.8092  -25.3063  -42.2845 O.2       4 UNK        -0.5039 
     34 N          26.0007  -26.9333  -43.6401 N.am      5 UNK        -0.4663 
     35 CA         26.7993  -28.0428  -43.1152 C.3       5 UNK         0.0242 
     36 CB         26.6955  -29.2403  -44.0738 C.3       5 UNK        -0.1982 
     37 C          26.3523  -28.4373  -41.6966 C.2       5 UNK         0.5017 
     38 O          25.1491  -28.5104  -41.4345 O.2       5 UNK        -0.5012 
     39 N          27.3262  -28.6930  -40.8140 N.am      6 UNK        -0.4439 
     40 CA         27.1007  -29.0759  -39.4198 C.3       6 UNK         0.0297 
     41 CB         28.4366  -29.0529  -38.6585 C.3       6 UNK        -0.2006 
     42 C          26.4356  -30.4574  -39.3122 C.2       6 UNK         0.4892 
     43 O          26.9595  -31.4240  -39.8702 O.2       6 UNK        -0.5089 
     44 N          25.3082  -30.5090  -38.5879 N.am      7 UNK        -0.4243 
     45 CA         24.4888  -31.6943  -38.3034 C.3       7 UNK         0.0196 
     46 CB         25.2404  -32.6566  -37.3581 C.3       7 UNK        -0.2007 
     47 C          23.9507  -32.3987  -39.5663 C.2       7 UNK         0.5020 
     48 O          23.8458  -33.6263  -39.5814 O.2       7 UNK        -0.5147 
     49 N          23.5890  -31.6154  -40.5950 N.am      8 UNK        -0.4734 
     50 CA         23.1056  -32.0949  -41.8996 C.3       8 UNK         0.0238 
     51 CB         22.8795  -30.8923  -42.8298 C.3       8 UNK        -0.1912 
     52 C          21.8405  -32.9749  -41.8439 C.2       8 UNK         0.5038 
     53 O          21.6778  -33.8415  -42.7038 O.2       8 UNK        -0.5046 
     54 N          20.9976  -32.7498  -40.8294 N.am      9 UNK        -0.4200 
     55 CA         19.8247  -33.5687  -40.4827 C.3       9 UNK         0.0839 
     56 C          19.9566  -34.2063  -39.0675 C.2       9 UNK         0.5513 
     57 N          21.1513  -34.3214  -38.4981 N.am      9 UNK        -0.7519 
     58 O          18.9645  -34.6214  -38.4739 O.2       9 UNK        -0.4960 
     59 C59        18.4984  -32.7795  -40.6676 C.3       10 UNK        -0.0876 
     60 S60        18.1404  -32.4498  -42.4246 S.3       10 UNK        -0.2414 
     61 C61        18.4150  -30.6576  -42.5281 C.3       10 UNK         0.0169 
     62 H62        11.7092  -26.0202  -40.9775 H         1 UNK         0.0903 
     63 H63        12.7424  -25.0249  -39.9500 H         1 UNK         0.0903 
     64 H64        11.6840  -24.2634  -41.1407 H         1 UNK         0.0903 
     65 H65        12.8908  -27.0335  -42.5869 H         1 UNK         0.3096 
     66 H66        14.7308  -25.5892  -44.2860 H         1 UNK         0.1121 
     67 H67        14.2594  -28.6156  -44.2772 H         1 UNK         0.0849 
     68 H68        13.1119  -27.5138  -44.9753 H         1 UNK         0.0849 
     69 H69        15.6958  -29.4564  -47.5948 H         1 UNK         0.0865 
     70 H70        14.8891  -29.9445  -46.1358 H         1 UNK         0.0865 
     71 H71        16.1832  -30.0223  -43.9508 H         1 UNK         0.1346 
     72 H72        20.4425  -30.3039  -44.3092 H         1 UNK         0.1412 
     73 H73        18.0953  -29.0708  -47.6738 H         1 UNK         0.1426 
     74 H74        21.4510  -30.2235  -46.5295 H         1 UNK         0.0716 
     75 H75        20.4362  -30.0008  -47.9262 H         1 UNK         0.0716 
     76 H76        22.2576  -28.5398  -45.0185 H         1 UNK         0.0695 
     77 H77        23.2914  -27.5218  -45.9819 H         1 UNK         0.0695 
     78 H78        21.5500  -25.5909  -45.5144 H         1 UNK         0.0983 
     79 H79        20.8512  -27.1593  -43.1223 H         1 UNK         0.3095 
     80 H80        18.5079  -27.6138  -42.7806 H         1 UNK         0.0454 
     81 H81        18.5123  -24.6118  -42.0912 H         1 UNK         0.0851 
     82 H82        17.9652  -25.9033  -41.0248 H         1 UNK         0.0851 
     83 H83        19.6579  -25.7898  -41.4662 H         1 UNK         0.0851 
     84 H84        16.9868  -25.8528  -44.4394 H         1 UNK         0.2976 
     85 H85        23.9124  -25.1570  -45.4914 H         1 UNK         0.3116 
     86 H86        24.6600  -24.0603  -42.9538 H         1 UNK         0.0646 
     87 H87        26.6337  -23.2234  -44.2300 H         1 UNK         0.0847 
     88 H88        25.1461  -22.9290  -45.1115 H         1 UNK         0.0847 
     89 H89        26.2129  -24.2504  -45.5922 H         1 UNK         0.0847 
     90 H90        25.3136  -27.1581  -44.3428 H         1 UNK         0.3040 
     91 H91        27.8419  -27.7186  -43.0790 H         1 UNK         0.1015 
     92 H92        27.0927  -28.9943  -45.0588 H         1 UNK         0.0786 
     93 H93        25.6643  -29.5692  -44.2021 H         1 UNK         0.0786 
     94 H94        27.2652  -30.0921  -43.6993 H         1 UNK         0.0786 
     95 H95        28.2876  -28.6500  -41.1197 H         1 UNK         0.3172 
     96 H96        26.4441  -28.3268  -38.9717 H         1 UNK         0.0595 
     97 H97        28.2915  -29.3170  -37.6100 H         1 UNK         0.0839 
     98 H98        28.8916  -28.0625  -38.6813 H         1 UNK         0.0839 
     99 H99        29.1526  -29.7625  -39.0754 H         1 UNK         0.0839 
    100 H100       24.9644  -29.6431  -38.1949 H         1 UNK         0.2998 
    101 H101       23.6087  -31.3345  -37.7682 H         1 UNK         0.0822 
    102 H102       24.5929  -33.4711  -37.0307 H         1 UNK         0.0787 
    103 H103       26.1069  -33.1060  -37.8445 H         1 UNK         0.0787 
    104 H104       25.5878  -32.1425  -36.4620 H         1 UNK         0.0787 
    105 H105       23.7341  -30.6180  -40.5079 H         1 UNK         0.3055 
    106 H106       23.8997  -32.7113  -42.3267 H         1 UNK         0.1106 
    107 H107       22.5784  -31.2219  -43.8249 H         1 UNK         0.0828 
    108 H108       22.1036  -30.2269  -42.4497 H         1 UNK         0.0828 
    109 H109       23.7899  -30.3072  -42.9495 H         1 UNK         0.0828 
    110 H110       21.2380  -32.0292  -40.1650 H         1 UNK         0.2931 
    111 H111       19.7805  -34.4317  -41.1493 H         1 UNK         0.0412 
    112 H112       21.2160  -34.7435  -37.5852 H         1 UNK         0.3472 
    113 H113       21.9988  -34.0647  -38.9927 H         1 UNK         0.3472 
    114 H114       18.5168  -31.8486  -40.0985 H         1 UNK         0.0970 
    115 H115       17.6503  -33.3489  -40.2834 H         1 UNK         0.0970 
    116 H116       19.3935  -30.4135  -42.1116 H         1 UNK         0.0612 
    117 H117       17.6746  -30.1368  -41.9186 H         1 UNK         0.0612 
@<TRIPOS>BOND
     1    1    2 1    
     2    1   62 1    
     3    1   63 1    
     4    1   64 1    
     5    2    3 2    
     6    2    4 am   BACKBONE|DICT|INTERRES
     7    4    5 1    
     8    4   65 1    
     9    5    6 1    
    10    5   25 1    
    11    5   66 1    
    12    6    7 1    
    13    6   67 1    
    14    6   68 1    
    15    7    8 1    
    16    8    9 1    
    17    8   69 1    
    18    8   70 1    
    19    9   10 ar   
    20    9   14 ar   
    21   10   11 ar   
    22   10   71 1    
    23   11   12 ar   
    24   11   61 1    
    25   12   13 ar   
    26   12   72 1    
    27   13   14 ar   
    28   13   15 1    
    29   14   73 1    
    30   15   16 1    
    31   15   74 1    
    32   15   75 1    
    33   16   17 1    
    34   17   18 1    
    35   17   76 1    
    36   17   77 1    
    37   18   19 1    
    38   18   27 1    
    39   18   78 1    
    40   19   20 am   BACKBONE|DICT|INTERRES
    41   19   79 1    
    42   20   21 2    
    43   20   22 1    
    44   22   23 1    
    45   22   24 1    
    46   22   80 1    
    47   23   81 1    
    48   23   82 1    
    49   23   83 1    
    50   24   25 am   BACKBONE|DICT|INTERRES
    51   24   84 1    
    52   25   26 2    
    53   27   28 2    
    54   27   29 am   BACKBONE|DICT|INTERRES
    55   29   30 1    
    56   29   85 1    
    57   30   31 1    
    58   30   32 1    
    59   30   86 1    
    60   31   87 1    
    61   31   88 1    
    62   31   89 1    
    63   32   33 2    
    64   32   34 am   BACKBONE|DICT|INTERRES
    65   34   35 1    
    66   34   90 1    
    67   35   36 1    
    68   35   37 1    
    69   35   91 1    
    70   36   92 1    
    71   36   93 1    
    72   36   94 1    
    73   37   38 2    
    74   37   39 am   BACKBONE|DICT|INTERRES
    75   39   40 1    
    76   39   95 1    
    77   40   41 1    
    78   40   42 1    
    79   40   96 1    
    80   41   97 1    
    81   41   98 1    
    82   41   99 1    
    83   42   43 2    
    84   42   44 am   BACKBONE|DICT|INTERRES
    85   44   45 1    
    86   44  100 1    
    87   45   46 1    
    88   45   47 1    
    89   45  101 1    
    90   46  102 1    
    91   46  103 1    
    92   46  104 1    
    93   47   48 2    
    94   47   49 am   BACKBONE|DICT|INTERRES
    95   49   50 1    
    96   49  105 1    
    97   50   51 1    
    98   50   52 1    
    99   50  106 1    
   100   51  107 1    
   101   51  108 1    
   102   51  109 1    
   103   52   53 2    
   104   52   54 am   BACKBONE|DICT|INTERRES
   105   54   55 1    
   106   54  110 1    
   107   55   56 1    
   108   55   59 1    
   109   55  111 1    
   110   56   57 am   BACKBONE|DICT|INTERRES
   111   56   58 2    
   112   57  112 1    
   113   57  113 1    
   114   59   60 1    
   115   59  114 1    
   116   59  115 1    
   117   60   61 1    
   118   61  116 1    
   119   61  117 1    
@<TRIPOS>SUBSTRUCTURE
     1 UNK         1 GROUP             0       ****    0 ROOT    
