@<TRIPOS>MOLECULE
3R8
117   119    1
SMALL
USER_CHARGES


@<TRIPOS>ATOM
      1 CA         15.7821  -25.1908  -38.8222 C.3       0 UNK        -0.2013 
      2 C          15.9949  -25.1958  -40.3288 C.2       0 UNK         0.4866 
      3 O          15.1840  -24.6335  -41.0650 O.2       0 UNK        -0.5176 
      4 N          17.0796  -25.8235  -40.7912 N.am      1 UNK        -0.4884 
      5 CA         17.4892  -25.9068  -42.1918 C.3       1 UNK         0.0853 
      6 C6         16.6655  -26.9555  -42.9866 C.3       10 UNK        -0.0849 
      7 S7         16.5550  -26.5491  -44.7629 S.3       10 UNK        -0.2776 
      8 C8         15.6976  -28.0164  -45.4192 C.3       10 UNK         0.0316 
      9 C9         16.6131  -29.2310  -45.4539 C.ar      10 UNK        -0.0863 
     10 C10        16.5969  -30.1561  -44.4070 C.ar      10 UNK        -0.1009 
     11 C11        17.4697  -31.2471  -44.4101 C.ar      10 UNK        -0.0712 
     12 C12        18.3433  -31.4289  -45.4867 C.ar      10 UNK        -0.0894 
     13 C13        18.3467  -30.5272  -46.5555 C.ar      10 UNK        -0.0745 
     14 C14        17.4817  -29.4282  -46.5313 C.ar      10 UNK        -0.0972 
     15 C15        19.2633  -30.7512  -47.7500 C.3       10 UNK         0.0209 
     16 S16        20.5519  -29.4742  -47.8854 S.3       10 UNK        -0.2568 
     17 C17        21.7156  -29.9744  -46.5762 C.3       10 UNK        -0.0983 
     18 CA         22.6216  -28.7931  -46.1322 C.3       3 UNK         0.0876 
     19 N          22.1135  -28.0675  -44.9718 N.am      3 UNK        -0.4424 
     20 C          21.2150  -27.0817  -44.9779 C.2       2 UNK         0.4918 
     21 O          20.6027  -26.6881  -45.9718 O.2       2 UNK        -0.4875 
     22 CA         21.0208  -26.3628  -43.6414 C.3       2 UNK         0.0481 
     23 CB         21.7925  -25.0307  -43.6266 C.3       2 UNK        -0.1831 
     24 N          19.6033  -26.1114  -43.4146 N.am      2 UNK        -0.4498 
     25 C          19.0026  -26.1922  -42.2234 C.2       1 UNK         0.5027 
     26 O          19.5961  -26.4783  -41.1757 O.2       1 UNK        -0.4969 
     27 C          24.0143  -29.2635  -45.6977 C.2       3 UNK         0.5005 
     28 O          24.1105  -30.0420  -44.7477 O.2       3 UNK        -0.5279 
     29 N          25.0657  -28.7198  -46.3287 N.am      4 UNK        -0.4463 
     30 CA         26.4947  -28.8251  -45.9813 C.3       4 UNK         0.0283 
     31 CB         26.9863  -30.2862  -45.9516 C.3       4 UNK        -0.1875 
     32 C          26.8721  -28.0778  -44.6859 C.2       4 UNK         0.4949 
     33 O          27.8757  -27.3649  -44.6738 O.2       4 UNK        -0.5039 
     34 N          26.0502  -28.2141  -43.6423 N.am      5 UNK        -0.4663 
     35 CA         26.0961  -27.4602  -42.3944 C.3       5 UNK         0.0242 
     36 CB         26.9449  -28.2213  -41.3606 C.3       5 UNK        -0.1982 
     37 C          24.6593  -27.2465  -41.8977 C.2       5 UNK         0.5017 
     38 O          23.7418  -27.9378  -42.3526 O.2       5 UNK        -0.5012 
     39 N          24.4869  -26.2926  -40.9743 N.am      6 UNK        -0.4439 
     40 CA         23.2150  -26.0106  -40.3066 C.3       6 UNK         0.0297 
     41 CB         23.3014  -24.6596  -39.5793 C.3       6 UNK        -0.2006 
     42 C          22.8462  -27.1364  -39.3308 C.2       6 UNK         0.4892 
     43 O          23.6976  -27.5462  -38.5384 O.2       6 UNK        -0.5089 
     44 N          21.5902  -27.5998  -39.4097 N.am      7 UNK        -0.4243 
     45 CA         20.9980  -28.6818  -38.6114 C.3       7 UNK         0.0196 
     46 CB         20.8198  -28.2374  -37.1439 C.3       7 UNK        -0.2007 
     47 C          21.7386  -30.0307  -38.7437 C.2       7 UNK         0.5020 
     48 O          21.7861  -30.8041  -37.7865 O.2       7 UNK        -0.5147 
     49 N          22.2911  -30.3017  -39.9353 N.am      8 UNK        -0.4734 
     50 CA         23.0273  -31.5300  -40.2651 C.3       8 UNK         0.0238 
     51 CB         23.8527  -31.2776  -41.5373 C.3       8 UNK        -0.1912 
     52 C          22.1342  -32.7744  -40.4464 C.2       8 UNK         0.5038 
     53 O          22.6645  -33.8786  -40.5768 O.2       8 UNK        -0.5046 
     54 N          20.8132  -32.5664  -40.4876 N.am      9 UNK        -0.4200 
     55 CA         19.7533  -33.5629  -40.6894 C.3       9 UNK         0.0839 
     56 C          19.8023  -34.7413  -39.6788 C.2       9 UNK         0.5513 
     57 N          19.5642  -35.9625  -40.1373 N.am      9 UNK        -0.7519 
     58 O          20.0013  -34.5501  -38.4810 O.2       9 UNK        -0.4960 
     59 C59        18.3549  -32.8910  -40.6600 C.3       10 UNK        -0.0876 
     60 S60        18.2375  -31.4553  -41.7809 S.3       10 UNK        -0.2414 
     61 C61        17.4730  -32.2180  -43.2414 C.3       10 UNK         0.0169 
     62 H62        14.8347  -25.6693  -38.5758 H         1 UNK         0.0903 
     63 H63        16.5762  -25.7206  -38.2963 H         1 UNK         0.0903 
     64 H64        15.7538  -24.1669  -38.4505 H         1 UNK         0.0903 
     65 H65        17.7593  -26.2252  -40.1553 H         1 UNK         0.3096 
     66 H66        17.3425  -24.9167  -42.6304 H         1 UNK         0.1121 
     67 H67        15.6420  -27.0008  -42.6115 H         1 UNK         0.0849 
     68 H68        17.0766  -27.9565  -42.8486 H         1 UNK         0.0849 
     69 H69        14.8064  -28.2198  -44.8234 H         1 UNK         0.0865 
     70 H70        15.3434  -27.7967  -46.4276 H         1 UNK         0.0865 
     71 H71        15.9251  -30.0142  -43.5712 H         1 UNK         0.1346 
     72 H72        19.0174  -32.2745  -45.4942 H         1 UNK         0.1412 
     73 H73        17.4949  -28.7195  -47.3485 H         1 UNK         0.1426 
     74 H74        18.6630  -30.7382  -48.6608 H         1 UNK         0.0716 
     75 H75        19.7326  -31.7354  -47.7088 H         1 UNK         0.0716 
     76 H76        22.3048  -30.7981  -46.9848 H         1 UNK         0.0695 
     77 H77        21.1711  -30.3867  -45.7248 H         1 UNK         0.0695 
     78 H78        22.7438  -28.0908  -46.9600 H         1 UNK         0.0983 
     79 H79        22.5930  -28.2854  -44.1020 H         1 UNK         0.3095 
     80 H80        21.4001  -27.0109  -42.8509 H         1 UNK         0.0454 
     81 H81        22.8659  -25.2022  -43.7161 H         1 UNK         0.0851 
     82 H82        21.6264  -24.4786  -42.7020 H         1 UNK         0.0851 
     83 H83        21.4942  -24.3846  -44.4531 H         1 UNK         0.0851 
     84 H84        19.0478  -25.9539  -44.2475 H         1 UNK         0.2976 
     85 H85        24.8699  -28.0688  -47.0776 H         1 UNK         0.3116 
     86 H86        27.0259  -28.3253  -46.7930 H         1 UNK         0.0646 
     87 H87        26.5518  -30.8516  -45.1269 H         1 UNK         0.0847 
     88 H88        26.7456  -30.8056  -46.8790 H         1 UNK         0.0847 
     89 H89        28.0694  -30.3256  -45.8294 H         1 UNK         0.0847 
     90 H90        25.2353  -28.8158  -43.7499 H         1 UNK         0.3040 
     91 H91        26.5378  -26.4783  -42.5797 H         1 UNK         0.1015 
     92 H92        26.9872  -27.6860  -40.4112 H         1 UNK         0.0786 
     93 H93        27.9712  -28.3441  -41.7074 H         1 UNK         0.0786 
     94 H94        26.5421  -29.2136  -41.1577 H         1 UNK         0.0786 
     95 H95        25.2964  -25.8002  -40.6251 H         1 UNK         0.3172 
     96 H96        22.4352  -25.9364  -41.0627 H         1 UNK         0.0595 
     97 H97        24.0720  -24.6637  -38.8072 H         1 UNK         0.0839 
     98 H98        22.3549  -24.4197  -39.0929 H         1 UNK         0.0839 
     99 H99        23.5225  -23.8481  -40.2728 H         1 UNK         0.0839 
    100 H100       20.9629  -27.1782  -40.0933 H         1 UNK         0.2998 
    101 H101       20.0022  -28.8479  -39.0256 H         1 UNK         0.0822 
    102 H102       20.2566  -28.9781  -36.5749 H         1 UNK         0.0787 
    103 H103       20.2725  -27.2970  -37.0782 H         1 UNK         0.0787 
    104 H104       21.7792  -28.1033  -36.6431 H         1 UNK         0.0787 
    105 H105       22.2329  -29.6010  -40.6621 H         1 UNK         0.3055 
    106 H106       23.7154  -31.7478  -39.4452 H         1 UNK         0.1106 
    107 H107       24.5399  -30.4433  -41.4063 H         1 UNK         0.0828 
    108 H108       24.4525  -32.1497  -41.8007 H         1 UNK         0.0828 
    109 H109       23.2143  -31.0514  -42.3922 H         1 UNK         0.0828 
    110 H110       20.4925  -31.6167  -40.3807 H         1 UNK         0.2931 
    111 H111       19.9092  -33.9701  -41.6904 H         1 UNK         0.0412 
    112 H112       19.3886  -36.1276  -41.1166 H         1 UNK         0.3472 
    113 H113       19.5734  -36.7385  -39.4933 H         1 UNK         0.3472 
    114 H114       17.5756  -33.6127  -40.9130 H         1 UNK         0.0970 
    115 H115       18.1231  -32.5420  -39.6516 H         1 UNK         0.0970 
    116 H116       16.4505  -32.5162  -43.0048 H         1 UNK         0.0612 
    117 H117       18.0153  -33.1288  -43.5002 H         1 UNK         0.0612 
@<TRIPOS>BOND
     1    1    2 1    
     2    1   62 1    
     3    1   63 1    
     4    1   64 1    
     5    2    3 2    
     6    2    4 am   BACKBONE|DICT|INTERRES
     7    4    5 1    
     8    4   65 1    
     9    5    6 1    
    10    5   25 1    
    11    5   66 1    
    12    6    7 1    
    13    6   67 1    
    14    6   68 1    
    15    7    8 1    
    16    8    9 1    
    17    8   69 1    
    18    8   70 1    
    19    9   10 ar   
    20    9   14 ar   
    21   10   11 ar   
    22   10   71 1    
    23   11   12 ar   
    24   11   61 1    
    25   12   13 ar   
    26   12   72 1    
    27   13   14 ar   
    28   13   15 1    
    29   14   73 1    
    30   15   16 1    
    31   15   74 1    
    32   15   75 1    
    33   16   17 1    
    34   17   18 1    
    35   17   76 1    
    36   17   77 1    
    37   18   19 1    
    38   18   27 1    
    39   18   78 1    
    40   19   20 am   BACKBONE|DICT|INTERRES
    41   19   79 1    
    42   20   21 2    
    43   20   22 1    
    44   22   23 1    
    45   22   24 1    
    46   22   80 1    
    47   23   81 1    
    48   23   82 1    
    49   23   83 1    
    50   24   25 am   BACKBONE|DICT|INTERRES
    51   24   84 1    
    52   25   26 2    
    53   27   28 2    
    54   27   29 am   BACKBONE|DICT|INTERRES
    55   29   30 1    
    56   29   85 1    
    57   30   31 1    
    58   30   32 1    
    59   30   86 1    
    60   31   87 1    
    61   31   88 1    
    62   31   89 1    
    63   32   33 2    
    64   32   34 am   BACKBONE|DICT|INTERRES
    65   34   35 1    
    66   34   90 1    
    67   35   36 1    
    68   35   37 1    
    69   35   91 1    
    70   36   92 1    
    71   36   93 1    
    72   36   94 1    
    73   37   38 2    
    74   37   39 am   BACKBONE|DICT|INTERRES
    75   39   40 1    
    76   39   95 1    
    77   40   41 1    
    78   40   42 1    
    79   40   96 1    
    80   41   97 1    
    81   41   98 1    
    82   41   99 1    
    83   42   43 2    
    84   42   44 am   BACKBONE|DICT|INTERRES
    85   44   45 1    
    86   44  100 1    
    87   45   46 1    
    88   45   47 1    
    89   45  101 1    
    90   46  102 1    
    91   46  103 1    
    92   46  104 1    
    93   47   48 2    
    94   47   49 am   BACKBONE|DICT|INTERRES
    95   49   50 1    
    96   49  105 1    
    97   50   51 1    
    98   50   52 1    
    99   50  106 1    
   100   51  107 1    
   101   51  108 1    
   102   51  109 1    
   103   52   53 2    
   104   52   54 am   BACKBONE|DICT|INTERRES
   105   54   55 1    
   106   54  110 1    
   107   55   56 1    
   108   55   59 1    
   109   55  111 1    
   110   56   57 am   BACKBONE|DICT|INTERRES
   111   56   58 2    
   112   57  112 1    
   113   57  113 1    
   114   59   60 1    
   115   59  114 1    
   116   59  115 1    
   117   60   61 1    
   118   61  116 1    
   119   61  117 1    
@<TRIPOS>SUBSTRUCTURE
     1 UNK         1 GROUP             0       ****    0 ROOT    
