@<TRIPOS>MOLECULE
3R8
117   119    1
SMALL
USER_CHARGES


@<TRIPOS>ATOM
      1 CA         15.0714  -23.2872  -48.1700 C.3       0 UNK        -0.2013 
      2 C          16.1950  -24.2987  -47.9984 C.2       0 UNK         0.4866 
      3 O          17.2421  -24.1639  -48.6328 O.2       0 UNK        -0.5176 
      4 N          15.9842  -25.3150  -47.1524 N.am      1 UNK        -0.4884 
      5 CA         16.9812  -26.3352  -46.8118 C.3       1 UNK         0.0853 
      6 C6         16.3066  -27.5870  -46.1946 C.3       10 UNK        -0.0849 
      7 S7         17.2831  -29.1033  -46.4649 S.3       10 UNK        -0.2776 
      8 C8         16.3822  -30.2970  -45.4265 C.3       10 UNK         0.0316 
      9 C9         16.8084  -30.2118  -43.9678 C.ar      10 UNK        -0.0863 
     10 C10        17.9426  -30.9035  -43.5326 C.ar      10 UNK        -0.1009 
     11 C11        18.3484  -30.8482  -42.1919 C.ar      10 UNK        -0.0712 
     12 C12        17.5778  -30.1117  -41.2870 C.ar      10 UNK        -0.0894 
     13 C13        16.4542  -29.3953  -41.7116 C.ar      10 UNK        -0.0745 
     14 C14        16.0701  -29.4556  -43.0539 C.ar      10 UNK        -0.0972 
     15 C15        15.6600  -28.5481  -40.7243 C.3       10 UNK         0.0209 
     16 S16        16.6901  -27.3051  -39.8725 S.3       10 UNK        -0.2568 
     17 C17        17.3506  -26.3235  -41.2638 C.3       10 UNK        -0.0983 
     18 CA         18.7995  -26.7261  -41.6370 C.3       3 UNK         0.0876 
     19 N          19.1671  -26.2382  -42.9623 N.am      3 UNK        -0.4424 
     20 C          20.2482  -26.6182  -43.6526 C.2       2 UNK         0.4918 
     21 O          21.0703  -27.4366  -43.2346 O.2       2 UNK        -0.4875 
     22 CA         20.4046  -25.9910  -45.0533 C.3       2 UNK         0.0481 
     23 CB         21.7057  -26.4174  -45.7553 C.3       2 UNK        -0.1831 
     24 N          19.2699  -26.3217  -45.9211 N.am      2 UNK        -0.4498 
     25 C          18.0568  -25.7562  -45.8683 C.2       1 UNK         0.5027 
     26 O          17.7627  -24.8521  -45.0796 O.2       1 UNK        -0.4969 
     27 C          19.8303  -26.2779  -40.5825 C.2       3 UNK         0.5005 
     28 O          20.1468  -25.0879  -40.5076 O.2       3 UNK        -0.5279 
     29 N          20.3326  -27.2490  -39.8050 N.am      4 UNK        -0.4463 
     30 CA         21.3260  -27.1119  -38.7322 C.3       4 UNK         0.0283 
     31 CB         20.7695  -26.2558  -37.5741 C.3       4 UNK        -0.1875 
     32 C          22.7178  -26.6357  -39.2003 C.2       4 UNK         0.4949 
     33 O          23.5039  -26.1752  -38.3712 O.2       4 UNK        -0.5039 
     34 N          23.0222  -26.7726  -40.5005 N.am      5 UNK        -0.4663 
     35 CA         24.3283  -26.4345  -41.0790 C.3       5 UNK         0.0242 
     36 CB         24.2096  -26.3818  -42.6101 C.3       5 UNK        -0.1982 
     37 C          25.4400  -27.4114  -40.6568 C.2       5 UNK         0.5017 
     38 O          26.5871  -26.9939  -40.4958 O.2       5 UNK        -0.5012 
     39 N          25.0687  -28.6824  -40.4739 N.am      6 UNK        -0.4439 
     40 CA         25.8925  -29.8008  -40.0287 C.3       6 UNK         0.0297 
     41 CB         26.9370  -30.1722  -41.1017 C.3       6 UNK        -0.2006 
     42 C          24.9489  -30.9794  -39.7618 C.2       6 UNK         0.4892 
     43 O          23.7914  -30.9398  -40.1896 O.2       6 UNK        -0.5089 
     44 N          25.4650  -32.0324  -39.1140 N.am      7 UNK        -0.4243 
     45 CA         24.7423  -33.2881  -38.8630 C.3       7 UNK         0.0196 
     46 CB         25.5865  -34.1863  -37.9446 C.3       7 UNK        -0.2007 
     47 C          24.3535  -34.0452  -40.1488 C.2       7 UNK         0.5020 
     48 O          23.3524  -34.7605  -40.1531 O.2       7 UNK        -0.5147 
     49 N          25.1357  -33.8502  -41.2191 N.am      8 UNK        -0.4734 
     50 CA         24.8698  -34.3584  -42.5683 C.3       8 UNK         0.0238 
     51 CB         26.2171  -34.5969  -43.2734 C.3       8 UNK        -0.1912 
     52 C          23.9717  -33.4229  -43.4056 C.2       8 UNK         0.5038 
     53 O          23.7301  -33.7266  -44.5747 O.2       8 UNK        -0.5046 
     54 N          23.5162  -32.3056  -42.8192 N.am      9 UNK        -0.4200 
     55 CA         22.7041  -31.2503  -43.4502 C.3       9 UNK         0.0839 
     56 C          23.4667  -30.4207  -44.5280 C.2       9 UNK         0.5513 
     57 N          24.7937  -30.3774  -44.5057 N.am      9 UNK        -0.7519 
     58 O          22.8560  -29.8011  -45.3935 O.2       9 UNK        -0.4960 
     59 C59        21.3078  -31.7311  -43.9457 C.3       10 UNK        -0.0876 
     60 S60        20.3904  -32.7715  -42.7527 S.3       10 UNK        -0.2414 
     61 C61        19.6150  -31.5286  -41.6643 C.3       10 UNK         0.0169 
     62 H62        14.7572  -23.2484  -49.2127 H         1 UNK         0.0903 
     63 H63        14.2012  -23.5365  -47.5631 H         1 UNK         0.0903 
     64 H64        15.4137  -22.2942  -47.8799 H         1 UNK         0.0903 
     65 H65        15.1198  -25.3526  -46.6308 H         1 UNK         0.3096 
     66 H66        17.4709  -26.6251  -47.7450 H         1 UNK         0.1121 
     67 H67        16.1097  -27.4488  -45.1299 H         1 UNK         0.0849 
     68 H68        15.3338  -27.7569  -46.6595 H         1 UNK         0.0849 
     69 H69        15.3067  -30.1418  -45.5265 H         1 UNK         0.0865 
     70 H70        16.5752  -31.3030  -45.8026 H         1 UNK         0.0865 
     71 H71        18.5022  -31.4776  -44.2557 H         1 UNK         0.1346 
     72 H72        17.8726  -30.0644  -40.2473 H         1 UNK         0.1412 
     73 H73        15.1954  -28.9146  -43.3882 H         1 UNK         0.1426 
     74 H74        15.2100  -29.2041  -39.9781 H         1 UNK         0.0716 
     75 H75        14.8347  -28.0373  -41.2228 H         1 UNK         0.0716 
     76 H76        17.2934  -25.2638  -41.0079 H         1 UNK         0.0695 
     77 H77        16.6899  -26.4573  -42.1223 H         1 UNK         0.0695 
     78 H78        18.8424  -27.8123  -41.7119 H         1 UNK         0.0983 
     79 H79        18.5477  -25.5604  -43.3937 H         1 UNK         0.3095 
     80 H80        20.4426  -24.9079  -44.9201 H         1 UNK         0.0454 
     81 H81        21.7234  -27.4896  -45.9497 H         1 UNK         0.0851 
     82 H82        22.5785  -26.1828  -45.1460 H         1 UNK         0.0851 
     83 H83        21.8304  -25.9023  -46.7076 H         1 UNK         0.0851 
     84 H84        19.4049  -27.1037  -46.5469 H         1 UNK         0.2976 
     85 H85        20.0053  -28.1921  -39.9614 H         1 UNK         0.3116 
     86 H86        21.4798  -28.1197  -38.3436 H         1 UNK         0.0646 
     87 H87        20.6622  -25.2089  -37.8593 H         1 UNK         0.0847 
     88 H88        21.4313  -26.2882  -36.7078 H         1 UNK         0.0847 
     89 H89        19.7942  -26.6159  -37.2464 H         1 UNK         0.0847 
     90 H90        22.3182  -27.1310  -41.1329 H         1 UNK         0.3040 
     91 H91        24.6124  -25.4412  -40.7239 H         1 UNK         0.1015 
     92 H92        23.9034  -27.3425  -43.0271 H         1 UNK         0.0786 
     93 H93        25.1635  -26.1163  -43.0679 H         1 UNK         0.0786 
     94 H94        23.4814  -25.6328  -42.9213 H         1 UNK         0.0786 
     95 H95        24.0954  -28.9344  -40.6023 H         1 UNK         0.3172 
     96 H96        26.3895  -29.5271  -39.0961 H         1 UNK         0.0595 
     97 H97        27.5436  -31.0229  -40.7896 H         1 UNK         0.0839 
     98 H98        27.6264  -29.3503  -41.2935 H         1 UNK         0.0839 
     99 H99        26.4653  -30.4354  -42.0481 H         1 UNK         0.0839 
    100 H100       26.4211  -31.9865  -38.7903 H         1 UNK         0.2998 
    101 H101       23.8153  -33.0391  -38.3416 H         1 UNK         0.0822 
    102 H102       25.0623  -35.1165  -37.7199 H         1 UNK         0.0787 
    103 H103       26.5395  -34.4525  -38.4037 H         1 UNK         0.0787 
    104 H104       25.7955  -33.6972  -36.9930 H         1 UNK         0.0787 
    105 H105       25.9477  -33.2602  -41.1101 H         1 UNK         0.3055 
    106 H106       24.3486  -35.3158  -42.4955 H         1 UNK         0.1106 
    107 H107       26.0715  -35.0331  -44.2627 H         1 UNK         0.0828 
    108 H108       26.7749  -33.6692  -43.4061 H         1 UNK         0.0828 
    109 H109       26.8433  -35.2883  -42.7092 H         1 UNK         0.0828 
    110 H110       23.7400  -32.1381  -41.8456 H         1 UNK         0.2931 
    111 H111       22.5154  -30.5343  -42.6499 H         1 UNK         0.0412 
    112 H112       25.3114  -30.8974  -43.8183 H         1 UNK         0.3472 
    113 H113       25.2783  -29.8394  -45.2065 H         1 UNK         0.3472 
    114 H114       20.6982  -30.8648  -44.2068 H         1 UNK         0.0970 
    115 H115       21.4159  -32.3062  -44.8668 H         1 UNK         0.0970 
    116 H116       20.3532  -30.7636  -41.4201 H         1 UNK         0.0612 
    117 H117       19.3741  -32.0304  -40.7260 H         1 UNK         0.0612 
@<TRIPOS>BOND
     1    1    2 1    
     2    1   62 1    
     3    1   63 1    
     4    1   64 1    
     5    2    3 2    
     6    2    4 am   BACKBONE|DICT|INTERRES
     7    4    5 1    
     8    4   65 1    
     9    5    6 1    
    10    5   25 1    
    11    5   66 1    
    12    6    7 1    
    13    6   67 1    
    14    6   68 1    
    15    7    8 1    
    16    8    9 1    
    17    8   69 1    
    18    8   70 1    
    19    9   10 ar   
    20    9   14 ar   
    21   10   11 ar   
    22   10   71 1    
    23   11   12 ar   
    24   11   61 1    
    25   12   13 ar   
    26   12   72 1    
    27   13   14 ar   
    28   13   15 1    
    29   14   73 1    
    30   15   16 1    
    31   15   74 1    
    32   15   75 1    
    33   16   17 1    
    34   17   18 1    
    35   17   76 1    
    36   17   77 1    
    37   18   19 1    
    38   18   27 1    
    39   18   78 1    
    40   19   20 am   BACKBONE|DICT|INTERRES
    41   19   79 1    
    42   20   21 2    
    43   20   22 1    
    44   22   23 1    
    45   22   24 1    
    46   22   80 1    
    47   23   81 1    
    48   23   82 1    
    49   23   83 1    
    50   24   25 am   BACKBONE|DICT|INTERRES
    51   24   84 1    
    52   25   26 2    
    53   27   28 2    
    54   27   29 am   BACKBONE|DICT|INTERRES
    55   29   30 1    
    56   29   85 1    
    57   30   31 1    
    58   30   32 1    
    59   30   86 1    
    60   31   87 1    
    61   31   88 1    
    62   31   89 1    
    63   32   33 2    
    64   32   34 am   BACKBONE|DICT|INTERRES
    65   34   35 1    
    66   34   90 1    
    67   35   36 1    
    68   35   37 1    
    69   35   91 1    
    70   36   92 1    
    71   36   93 1    
    72   36   94 1    
    73   37   38 2    
    74   37   39 am   BACKBONE|DICT|INTERRES
    75   39   40 1    
    76   39   95 1    
    77   40   41 1    
    78   40   42 1    
    79   40   96 1    
    80   41   97 1    
    81   41   98 1    
    82   41   99 1    
    83   42   43 2    
    84   42   44 am   BACKBONE|DICT|INTERRES
    85   44   45 1    
    86   44  100 1    
    87   45   46 1    
    88   45   47 1    
    89   45  101 1    
    90   46  102 1    
    91   46  103 1    
    92   46  104 1    
    93   47   48 2    
    94   47   49 am   BACKBONE|DICT|INTERRES
    95   49   50 1    
    96   49  105 1    
    97   50   51 1    
    98   50   52 1    
    99   50  106 1    
   100   51  107 1    
   101   51  108 1    
   102   51  109 1    
   103   52   53 2    
   104   52   54 am   BACKBONE|DICT|INTERRES
   105   54   55 1    
   106   54  110 1    
   107   55   56 1    
   108   55   59 1    
   109   55  111 1    
   110   56   57 am   BACKBONE|DICT|INTERRES
   111   56   58 2    
   112   57  112 1    
   113   57  113 1    
   114   59   60 1    
   115   59  114 1    
   116   59  115 1    
   117   60   61 1    
   118   61  116 1    
   119   61  117 1    
@<TRIPOS>SUBSTRUCTURE
     1 UNK         1 GROUP             0       ****    0 ROOT    
