@<TRIPOS>MOLECULE
3R8
117   119    1
SMALL
USER_CHARGES


@<TRIPOS>ATOM
      1 CA         16.5985  -25.2083  -45.9778 C.3       0 UNK        -0.2013 
      2 C          17.7385  -26.1510  -45.6266 C.2       0 UNK         0.4866 
      3 O          18.1081  -26.2494  -44.4570 O.2       0 UNK        -0.5176 
      4 N          18.3142  -26.8243  -46.6347 N.am      1 UNK        -0.4884 
      5 CA         19.3547  -27.8695  -46.5413 C.3       1 UNK         0.0853 
      6 C6         18.8673  -29.1454  -45.8011 C.3       10 UNK        -0.0849 
      7 S7         17.3741  -29.8960  -46.5375 S.3       10 UNK        -0.2776 
      8 C8         16.1175  -29.6001  -45.2477 C.3       10 UNK         0.0316 
      9 C9         16.5057  -30.2006  -43.9018 C.ar      10 UNK        -0.0863 
     10 C10        16.6671  -31.5818  -43.7635 C.ar      10 UNK        -0.1009 
     11 C11        17.0435  -32.1386  -42.5366 C.ar      10 UNK        -0.0712 
     12 C12        17.2448  -31.2962  -41.4368 C.ar      10 UNK        -0.0894 
     13 C13        17.0578  -29.9135  -41.5540 C.ar      10 UNK        -0.0745 
     14 C14        16.6924  -29.3732  -42.7906 C.ar      10 UNK        -0.0972 
     15 C15        17.1894  -29.0129  -40.3313 C.3       10 UNK         0.0209 
     16 S16        18.8856  -28.4022  -40.0818 S.3       10 UNK        -0.2568 
     17 C17        18.9465  -26.9881  -41.2338 C.3       10 UNK        -0.0983 
     18 CA         20.3949  -26.4953  -41.4749 C.3       3 UNK         0.0876 
     19 N          20.6203  -26.0656  -42.8646 N.am      3 UNK        -0.4424 
     20 C          21.8333  -25.9094  -43.4220 C.2       2 UNK         0.4918 
     21 O          22.8819  -26.1016  -42.8052 O.2       2 UNK        -0.4875 
     22 CA         21.8811  -25.4394  -44.8910 C.3       2 UNK         0.0481 
     23 CB         23.2807  -25.5870  -45.5254 C.3       2 UNK        -0.1831 
     24 N          20.8446  -26.0779  -45.7075 N.am      2 UNK        -0.4498 
     25 C          20.7019  -27.3905  -45.9464 C.2       1 UNK         0.5027 
     26 O          21.5740  -28.2221  -45.6950 O.2       1 UNK        -0.4969 
     27 C          20.8786  -25.4773  -40.4163 C.2       3 UNK         0.5005 
     28 O          21.1036  -25.8597  -39.2676 O.2       3 UNK        -0.5279 
     29 N          21.1432  -24.2277  -40.8294 N.am      4 UNK        -0.4463 
     30 CA         21.9020  -23.2344  -40.0580 C.3       4 UNK         0.0283 
     31 CB         21.8849  -21.8916  -40.8053 C.3       4 UNK        -0.1875 
     32 C          23.3558  -23.6668  -39.7634 C.2       4 UNK         0.4949 
     33 O          23.9248  -23.2219  -38.7672 O.2       4 UNK        -0.5039 
     34 N          23.9116  -24.5471  -40.6083 N.am      5 UNK        -0.4663 
     35 CA         25.1984  -25.2228  -40.4340 C.3       5 UNK         0.0242 
     36 CB         26.0475  -25.0003  -41.6996 C.3       5 UNK        -0.1982 
     37 C          24.9913  -26.7224  -40.1319 C.2       5 UNK         0.5017 
     38 O          25.8573  -27.5343  -40.4578 O.2       5 UNK        -0.5012 
     39 N          23.8416  -27.0651  -39.5289 N.am      6 UNK        -0.4439 
     40 CA         23.3897  -28.3894  -39.0797 C.3       6 UNK         0.0297 
     41 CB         24.3976  -29.0302  -38.1023 C.3       6 UNK        -0.2006 
     42 C          22.9716  -29.3728  -40.1904 C.2       6 UNK         0.4892 
     43 O          22.5034  -30.4593  -39.8500 O.2       6 UNK        -0.5089 
     44 N          23.1222  -29.0024  -41.4729 N.am      7 UNK        -0.4243 
     45 CA         22.7297  -29.7148  -42.7056 C.3       7 UNK         0.0196 
     46 CB         21.1964  -29.8854  -42.7971 C.3       7 UNK        -0.2007 
     47 C          23.4038  -31.0751  -42.9693 C.2       7 UNK         0.5020 
     48 O          23.5514  -31.4472  -44.1337 O.2       7 UNK        -0.5147 
     49 N          23.7277  -31.8277  -41.9111 N.am      8 UNK        -0.4734 
     50 CA         24.1376  -33.2385  -41.8582 C.3       8 UNK         0.0238 
     51 CB         25.3951  -33.5244  -42.7029 C.3       8 UNK        -0.1912 
     52 C          22.9844  -34.1996  -42.1985 C.2       8 UNK         0.5038 
     53 O          22.7467  -35.1402  -41.4402 O.2       8 UNK        -0.5046 
     54 N          22.2688  -33.9211  -43.2967 N.am      9 UNK        -0.4200 
     55 CA         21.0571  -34.6192  -43.7530 C.3       9 UNK         0.0839 
     56 C          21.2874  -36.1127  -44.1490 C.2       9 UNK         0.5513 
     57 N          22.4896  -36.4935  -44.5658 N.am      9 UNK        -0.7519 
     58 O          20.3774  -36.9361  -44.0987 O.2       9 UNK        -0.4960 
     59 C59        19.8622  -34.3841  -42.7803 C.3       10 UNK        -0.0876 
     60 S60        18.2453  -34.4265  -43.6231 S.3       10 UNK        -0.2414 
     61 C61        17.1553  -33.6523  -42.3829 C.3       10 UNK         0.0169 
     62 H62        16.8496  -24.1897  -45.6832 H         1 UNK         0.0903 
     63 H63        16.3799  -25.2102  -47.0454 H         1 UNK         0.0903 
     64 H64        15.6944  -25.5033  -45.4460 H         1 UNK         0.0903 
     65 H65        17.9706  -26.6663  -47.5725 H         1 UNK         0.3096 
     66 H66        19.5846  -28.1554  -47.5691 H         1 UNK         0.1121 
     67 H67        18.7029  -28.9247  -44.7459 H         1 UNK         0.0849 
     68 H68        19.6374  -29.9189  -45.8204 H         1 UNK         0.0849 
     69 H69        15.9457  -28.5266  -45.1600 H         1 UNK         0.0865 
     70 H70        15.1705  -30.0341  -45.5709 H         1 UNK         0.0865 
     71 H71        16.5026  -32.2255  -44.6170 H         1 UNK         0.1346 
     72 H72        17.5164  -31.7177  -40.4786 H         1 UNK         0.1412 
     73 H73        16.5456  -28.3059  -42.8871 H         1 UNK         0.1426 
     74 H74        16.5036  -28.1673  -40.4047 H         1 UNK         0.0716 
     75 H75        16.8878  -29.5649  -39.4399 H         1 UNK         0.0716 
     76 H76        18.2942  -26.1870  -40.8814 H         1 UNK         0.0695 
     77 H77        18.5194  -27.3365  -42.1721 H         1 UNK         0.0695 
     78 H78        21.0507  -27.3522  -41.3349 H         1 UNK         0.0983 
     79 H79        19.7889  -25.9463  -43.4380 H         1 UNK         0.3095 
     80 H80        21.6406  -24.3757  -44.8756 H         1 UNK         0.0454 
     81 H81        23.2831  -25.2592  -46.5646 H         1 UNK         0.0851 
     82 H82        23.6365  -26.6172  -45.4965 H         1 UNK         0.0851 
     83 H83        24.0142  -24.9804  -44.9929 H         1 UNK         0.0851 
     84 H84        20.0637  -25.4896  -45.9632 H         1 UNK         0.2976 
     85 H85        20.9153  -23.9864  -41.7829 H         1 UNK         0.3116 
     86 H86        21.3980  -23.1009  -39.0984 H         1 UNK         0.0646 
     87 H87        20.8669  -21.5315  -40.9546 H         1 UNK         0.0847 
     88 H88        22.4170  -21.1249  -40.2401 H         1 UNK         0.0847 
     89 H89        22.3640  -21.9655  -41.7824 H         1 UNK         0.0847 
     90 H90        23.3676  -24.8802  -41.3994 H         1 UNK         0.3040 
     91 H91        25.7372  -24.8015  -39.5825 H         1 UNK         0.1015 
     92 H92        25.5905  -25.4603  -42.5769 H         1 UNK         0.0786 
     93 H93        27.0439  -25.4293  -41.5863 H         1 UNK         0.0786 
     94 H94        26.1767  -23.9381  -41.9075 H         1 UNK         0.0786 
     95 H95        23.1760  -26.3220  -39.3441 H         1 UNK         0.3172 
     96 H96        22.4774  -28.1959  -38.5134 H         1 UNK         0.0595 
     97 H97        25.3196  -29.3272  -38.6025 H         1 UNK         0.0839 
     98 H98        23.9797  -29.9271  -37.6433 H         1 UNK         0.0839 
     99 H99        24.6575  -28.3473  -37.2935 H         1 UNK         0.0839 
    100 H100       23.5523  -28.1004  -41.6346 H         1 UNK         0.2998 
    101 H101       23.0368  -29.0666  -43.5281 H         1 UNK         0.0822 
    102 H102       20.9184  -30.4896  -43.6620 H         1 UNK         0.0787 
    103 H103       20.7783  -30.3766  -41.9182 H         1 UNK         0.0787 
    104 H104       20.6916  -28.9307  -42.9230 H         1 UNK         0.0787 
    105 H105       23.4497  -31.4341  -41.0127 H         1 UNK         0.3055 
    106 H106       24.3988  -33.4256  -40.8150 H         1 UNK         0.1106 
    107 H107       25.7455  -34.5441  -42.5383 H         1 UNK         0.0828 
    108 H108       25.2109  -33.4181  -43.7719 H         1 UNK         0.0828 
    109 H109       26.2119  -32.8542  -42.4353 H         1 UNK         0.0828 
    110 H110       22.5702  -33.1284  -43.8551 H         1 UNK         0.2931 
    111 H111       20.8102  -34.1222  -44.6919 H         1 UNK         0.0412 
    112 H112       22.6407  -37.4557  -44.8262 H         1 UNK         0.3472 
    113 H113       23.2461  -35.8302  -44.6194 H         1 UNK         0.3472 
    114 H114       19.8714  -35.1095  -41.9647 H         1 UNK         0.0970 
    115 H115       19.9516  -33.4024  -42.3113 H         1 UNK         0.0970 
    116 H116       16.1574  -34.0789  -42.4917 H         1 UNK         0.0612 
    117 H117       17.4949  -33.9239  -41.3821 H         1 UNK         0.0612 
@<TRIPOS>BOND
     1    1    2 1    
     2    1   62 1    
     3    1   63 1    
     4    1   64 1    
     5    2    3 2    
     6    2    4 am   BACKBONE|DICT|INTERRES
     7    4    5 1    
     8    4   65 1    
     9    5    6 1    
    10    5   25 1    
    11    5   66 1    
    12    6    7 1    
    13    6   67 1    
    14    6   68 1    
    15    7    8 1    
    16    8    9 1    
    17    8   69 1    
    18    8   70 1    
    19    9   10 ar   
    20    9   14 ar   
    21   10   11 ar   
    22   10   71 1    
    23   11   12 ar   
    24   11   61 1    
    25   12   13 ar   
    26   12   72 1    
    27   13   14 ar   
    28   13   15 1    
    29   14   73 1    
    30   15   16 1    
    31   15   74 1    
    32   15   75 1    
    33   16   17 1    
    34   17   18 1    
    35   17   76 1    
    36   17   77 1    
    37   18   19 1    
    38   18   27 1    
    39   18   78 1    
    40   19   20 am   BACKBONE|DICT|INTERRES
    41   19   79 1    
    42   20   21 2    
    43   20   22 1    
    44   22   23 1    
    45   22   24 1    
    46   22   80 1    
    47   23   81 1    
    48   23   82 1    
    49   23   83 1    
    50   24   25 am   BACKBONE|DICT|INTERRES
    51   24   84 1    
    52   25   26 2    
    53   27   28 2    
    54   27   29 am   BACKBONE|DICT|INTERRES
    55   29   30 1    
    56   29   85 1    
    57   30   31 1    
    58   30   32 1    
    59   30   86 1    
    60   31   87 1    
    61   31   88 1    
    62   31   89 1    
    63   32   33 2    
    64   32   34 am   BACKBONE|DICT|INTERRES
    65   34   35 1    
    66   34   90 1    
    67   35   36 1    
    68   35   37 1    
    69   35   91 1    
    70   36   92 1    
    71   36   93 1    
    72   36   94 1    
    73   37   38 2    
    74   37   39 am   BACKBONE|DICT|INTERRES
    75   39   40 1    
    76   39   95 1    
    77   40   41 1    
    78   40   42 1    
    79   40   96 1    
    80   41   97 1    
    81   41   98 1    
    82   41   99 1    
    83   42   43 2    
    84   42   44 am   BACKBONE|DICT|INTERRES
    85   44   45 1    
    86   44  100 1    
    87   45   46 1    
    88   45   47 1    
    89   45  101 1    
    90   46  102 1    
    91   46  103 1    
    92   46  104 1    
    93   47   48 2    
    94   47   49 am   BACKBONE|DICT|INTERRES
    95   49   50 1    
    96   49  105 1    
    97   50   51 1    
    98   50   52 1    
    99   50  106 1    
   100   51  107 1    
   101   51  108 1    
   102   51  109 1    
   103   52   53 2    
   104   52   54 am   BACKBONE|DICT|INTERRES
   105   54   55 1    
   106   54  110 1    
   107   55   56 1    
   108   55   59 1    
   109   55  111 1    
   110   56   57 am   BACKBONE|DICT|INTERRES
   111   56   58 2    
   112   57  112 1    
   113   57  113 1    
   114   59   60 1    
   115   59  114 1    
   116   59  115 1    
   117   60   61 1    
   118   61  116 1    
   119   61  117 1    
@<TRIPOS>SUBSTRUCTURE
     1 UNK         1 GROUP             0       ****    0 ROOT    
