@<TRIPOS>MOLECULE
3R8
117   119    1
SMALL
USER_CHARGES


@<TRIPOS>ATOM
      1 CA         20.2898  -26.0541  -38.0620 C.3       0 UNK        -0.2013 
      2 C          19.8461  -27.2647  -38.8681 C.2       0 UNK         0.4866 
      3 O          19.7322  -28.3614  -38.3177 O.2       0 UNK        -0.5176 
      4 N          19.6022  -27.0822  -40.1681 N.am      1 UNK        -0.4884 
      5 CA         19.1805  -28.1258  -41.0995 C.3       1 UNK         0.0853 
      6 C6         20.3261  -29.0994  -41.4680 C.3       10 UNK        -0.0849 
      7 S7         21.7312  -28.3509  -42.3591 S.3       10 UNK        -0.2776 
      8 C8         22.3979  -29.7936  -43.2446 C.3       10 UNK         0.0316 
      9 C9         21.4648  -30.1876  -44.3735 C.ar      10 UNK        -0.0863 
     10 C10        20.5550  -31.2264  -44.1950 C.ar      10 UNK        -0.1009 
     11 C11        19.5987  -31.5119  -45.1694 C.ar      10 UNK        -0.0712 
     12 C12        19.6104  -30.7907  -46.3695 C.ar      10 UNK        -0.0894 
     13 C13        20.5451  -29.7691  -46.5830 C.ar      10 UNK        -0.0745 
     14 C14        21.4716  -29.4778  -45.5735 C.ar      10 UNK        -0.0972 
     15 C15        20.5472  -29.0280  -47.9213 C.3       10 UNK         0.0209 
     16 S16        21.3767  -27.3974  -47.8999 S.3       10 UNK        -0.2568 
     17 C17        19.9911  -26.2283  -47.6860 C.3       10 UNK        -0.0983 
     18 CA         19.6742  -25.7856  -46.2315 C.3       3 UNK         0.0876 
     19 N          18.9777  -26.8183  -45.4541 N.am      3 UNK        -0.4424 
     20 C          17.6454  -26.8718  -45.3213 C.2       2 UNK         0.4918 
     21 O          16.8699  -26.1405  -45.9388 O.2       2 UNK        -0.4875 
     22 CA         17.0509  -27.8716  -44.3097 C.3       2 UNK         0.0481 
     23 CB         16.5020  -29.1121  -45.0302 C.3       2 UNK        -0.1831 
     24 N          17.9253  -28.2884  -43.2047 N.am      2 UNK        -0.4498 
     25 C          18.5133  -27.4680  -42.3202 C.2       1 UNK         0.5027 
     26 O          18.5448  -26.2389  -42.4374 O.2       1 UNK        -0.4969 
     27 C          20.8433  -25.1421  -45.4507 C.2       3 UNK         0.5005 
     28 O          21.6730  -24.4614  -46.0558 O.2       3 UNK        -0.5279 
     29 N          20.8612  -25.3231  -44.1178 N.am      4 UNK        -0.4463 
     30 CA         21.7688  -24.7106  -43.1333 C.3       4 UNK         0.0283 
     31 CB         21.4407  -23.2113  -42.9767 C.3       4 UNK        -0.1875 
     32 C          23.2762  -24.9590  -43.3664 C.2       4 UNK         0.4949 
     33 O          24.1004  -24.1480  -42.9411 O.2       4 UNK        -0.5039 
     34 N          23.6207  -26.0739  -44.0234 N.am      5 UNK        -0.4663 
     35 CA         25.0012  -26.4569  -44.3381 C.3       5 UNK         0.0242 
     36 CB         24.9954  -27.3836  -45.5656 C.3       5 UNK        -0.1982 
     37 C          25.7425  -27.1221  -43.1623 C.2       5 UNK         0.5017 
     38 O          26.9716  -27.1939  -43.1972 O.2       5 UNK        -0.5012 
     39 N          24.9997  -27.6100  -42.1620 N.am      6 UNK        -0.4439 
     40 CA         25.4928  -28.3139  -40.9796 C.3       6 UNK         0.0297 
     41 CB         25.8996  -29.7607  -41.3445 C.3       6 UNK        -0.2006 
     42 C          24.4204  -28.2154  -39.8804 C.2       6 UNK         0.4892 
     43 O          23.8535  -27.1361  -39.6968 O.2       6 UNK        -0.5089 
     44 N          24.1458  -29.3243  -39.1835 N.am      7 UNK        -0.4243 
     45 CA         23.0653  -29.4616  -38.2126 C.3       7 UNK         0.0196 
     46 CB         23.6050  -29.2597  -36.7867 C.3       7 UNK        -0.2007 
     47 C          22.4378  -30.8495  -38.3852 C.2       7 UNK         0.5020 
     48 O          23.1812  -31.8287  -38.4833 O.2       7 UNK        -0.5147 
     49 N          21.0972  -30.8906  -38.4063 N.am      8 UNK        -0.4734 
     50 CA         20.2065  -32.0316  -38.6757 C.3       8 UNK         0.0238 
     51 CB         20.4082  -33.1467  -37.6291 C.3       8 UNK        -0.1912 
     52 C          20.3034  -32.5989  -40.1101 C.2       8 UNK         0.5038 
     53 O          21.3228  -32.4459  -40.7848 O.2       8 UNK        -0.5046 
     54 N          19.2277  -33.2677  -40.5429 N.am      9 UNK        -0.4200 
     55 CA         19.1939  -34.1089  -41.7498 C.3       9 UNK         0.0839 
     56 C          19.4355  -35.5912  -41.3647 C.2       9 UNK         0.5513 
     57 N          20.1015  -36.3542  -42.2200 N.am      9 UNK        -0.7519 
     58 O          18.9934  -36.0641  -40.3191 O.2       9 UNK        -0.4960 
     59 C59        17.8622  -33.9596  -42.5341 C.3       10 UNK        -0.0876 
     60 S60        17.6844  -32.3226  -43.3215 S.3       10 UNK        -0.2414 
     61 C61        18.5563  -32.5915  -44.9080 C.3       10 UNK         0.0169 
     62 H62        21.2975  -26.2124  -37.6782 H         1 UNK         0.0903 
     63 H63        20.2952  -25.1448  -38.6628 H         1 UNK         0.0903 
     64 H64        19.6209  -25.8996  -37.2160 H         1 UNK         0.0903 
     65 H65        19.6467  -26.1612  -40.5868 H         1 UNK         0.3096 
     66 H66        18.3938  -28.7007  -40.6049 H         1 UNK         0.1121 
     67 H67        20.7345  -29.5446  -40.5669 H         1 UNK         0.0849 
     68 H68        19.9167  -29.9349  -42.0296 H         1 UNK         0.0849 
     69 H69        23.3842  -29.5573  -43.6434 H         1 UNK         0.0865 
     70 H70        22.5404  -30.6195  -42.5452 H         1 UNK         0.0865 
     71 H71        20.5565  -31.7795  -43.2672 H         1 UNK         0.1346 
     72 H72        18.8857  -31.0212  -47.1386 H         1 UNK         0.1412 
     73 H73        22.1982  -28.6908  -45.7046 H         1 UNK         0.1426 
     74 H74        19.5265  -28.9146  -48.2888 H         1 UNK         0.0716 
     75 H75        21.0637  -29.6562  -48.6479 H         1 UNK         0.0716 
     76 H76        19.0945  -26.6387  -48.1522 H         1 UNK         0.0695 
     77 H77        20.2354  -25.3453  -48.2791 H         1 UNK         0.0695 
     78 H78        18.9919  -24.9387  -46.3349 H         1 UNK         0.0983 
     79 H79        19.5512  -27.4918  -44.9661 H         1 UNK         0.3095 
     80 H80        16.2015  -27.3649  -43.8472 H         1 UNK         0.0454 
     81 H81        15.8111  -28.8302  -45.8259 H         1 UNK         0.0851 
     82 H82        15.9558  -29.7623  -44.3468 H         1 UNK         0.0851 
     83 H83        17.2973  -29.6977  -45.4856 H         1 UNK         0.0851 
     84 H84        17.9907  -29.2856  -43.0552 H         1 UNK         0.2976 
     85 H85        20.0845  -25.8305  -43.7068 H         1 UNK         0.3116 
     86 H86        21.5395  -25.1928  -42.1819 H         1 UNK         0.0646 
     87 H87        21.6898  -22.6494  -43.8775 H         1 UNK         0.0847 
     88 H88        20.3825  -23.0566  -42.7659 H         1 UNK         0.0847 
     89 H89        21.9993  -22.7682  -42.1513 H         1 UNK         0.0847 
     90 H90        22.8835  -26.6891  -44.3343 H         1 UNK         0.3040 
     91 H91        25.5592  -25.5555  -44.6019 H         1 UNK         0.1015 
     92 H92        26.0136  -27.5991  -45.8925 H         1 UNK         0.0786 
     93 H93        24.4764  -26.9259  -46.4084 H         1 UNK         0.0786 
     94 H94        24.5177  -28.3394  -45.3537 H         1 UNK         0.0786 
     95 H95        23.9998  -27.4469  -42.1767 H         1 UNK         0.3172 
     96 H96        26.3730  -27.7876  -40.6053 H         1 UNK         0.0595 
     97 H97        25.0467  -30.3499  -41.6832 H         1 UNK         0.0839 
     98 H98        26.3474  -30.2753  -40.4935 H         1 UNK         0.0839 
     99 H99        26.6443  -29.7752  -42.1404 H         1 UNK         0.0839 
    100 H100       24.6150  -30.1897  -39.4173 H         1 UNK         0.2998 
    101 H101       22.3066  -28.7050  -38.4105 H         1 UNK         0.0822 
    102 H102       22.8064  -29.3627  -36.0510 H         1 UNK         0.0787 
    103 H103       24.3756  -29.9914  -36.5403 H         1 UNK         0.0787 
    104 H104       24.0344  -28.2653  -36.6641 H         1 UNK         0.0787 
    105 H105       20.6099  -29.9993  -38.3129 H         1 UNK         0.3055 
    106 H106       19.1952  -31.6384  -38.5573 H         1 UNK         0.1106 
    107 H107       20.3202  -32.7594  -36.6140 H         1 UNK         0.0828 
    108 H108       19.6594  -33.9319  -37.7407 H         1 UNK         0.0828 
    109 H109       21.3851  -33.6217  -37.7233 H         1 UNK         0.0828 
    110 H110       18.4425  -33.3836  -39.9189 H         1 UNK         0.2931 
    111 H111       20.0046  -33.8188  -42.4198 H         1 UNK         0.0412 
    112 H112       20.4631  -35.9795  -43.0836 H         1 UNK         0.3472 
    113 H113       20.2556  -37.3247  -41.9933 H         1 UNK         0.3472 
    114 H114       17.7744  -34.7236  -43.3093 H         1 UNK         0.0970 
    115 H115       17.0100  -34.1170  -41.8705 H         1 UNK         0.0970 
    116 H116       17.8169  -32.6207  -45.7095 H         1 UNK         0.0612 
    117 H117       19.0582  -33.5596  -44.9117 H         1 UNK         0.0612 
@<TRIPOS>BOND
     1    1    2 1    
     2    1   62 1    
     3    1   63 1    
     4    1   64 1    
     5    2    3 2    
     6    2    4 am   BACKBONE|DICT|INTERRES
     7    4    5 1    
     8    4   65 1    
     9    5    6 1    
    10    5   25 1    
    11    5   66 1    
    12    6    7 1    
    13    6   67 1    
    14    6   68 1    
    15    7    8 1    
    16    8    9 1    
    17    8   69 1    
    18    8   70 1    
    19    9   10 ar   
    20    9   14 ar   
    21   10   11 ar   
    22   10   71 1    
    23   11   12 ar   
    24   11   61 1    
    25   12   13 ar   
    26   12   72 1    
    27   13   14 ar   
    28   13   15 1    
    29   14   73 1    
    30   15   16 1    
    31   15   74 1    
    32   15   75 1    
    33   16   17 1    
    34   17   18 1    
    35   17   76 1    
    36   17   77 1    
    37   18   19 1    
    38   18   27 1    
    39   18   78 1    
    40   19   20 am   BACKBONE|DICT|INTERRES
    41   19   79 1    
    42   20   21 2    
    43   20   22 1    
    44   22   23 1    
    45   22   24 1    
    46   22   80 1    
    47   23   81 1    
    48   23   82 1    
    49   23   83 1    
    50   24   25 am   BACKBONE|DICT|INTERRES
    51   24   84 1    
    52   25   26 2    
    53   27   28 2    
    54   27   29 am   BACKBONE|DICT|INTERRES
    55   29   30 1    
    56   29   85 1    
    57   30   31 1    
    58   30   32 1    
    59   30   86 1    
    60   31   87 1    
    61   31   88 1    
    62   31   89 1    
    63   32   33 2    
    64   32   34 am   BACKBONE|DICT|INTERRES
    65   34   35 1    
    66   34   90 1    
    67   35   36 1    
    68   35   37 1    
    69   35   91 1    
    70   36   92 1    
    71   36   93 1    
    72   36   94 1    
    73   37   38 2    
    74   37   39 am   BACKBONE|DICT|INTERRES
    75   39   40 1    
    76   39   95 1    
    77   40   41 1    
    78   40   42 1    
    79   40   96 1    
    80   41   97 1    
    81   41   98 1    
    82   41   99 1    
    83   42   43 2    
    84   42   44 am   BACKBONE|DICT|INTERRES
    85   44   45 1    
    86   44  100 1    
    87   45   46 1    
    88   45   47 1    
    89   45  101 1    
    90   46  102 1    
    91   46  103 1    
    92   46  104 1    
    93   47   48 2    
    94   47   49 am   BACKBONE|DICT|INTERRES
    95   49   50 1    
    96   49  105 1    
    97   50   51 1    
    98   50   52 1    
    99   50  106 1    
   100   51  107 1    
   101   51  108 1    
   102   51  109 1    
   103   52   53 2    
   104   52   54 am   BACKBONE|DICT|INTERRES
   105   54   55 1    
   106   54  110 1    
   107   55   56 1    
   108   55   59 1    
   109   55  111 1    
   110   56   57 am   BACKBONE|DICT|INTERRES
   111   56   58 2    
   112   57  112 1    
   113   57  113 1    
   114   59   60 1    
   115   59  114 1    
   116   59  115 1    
   117   60   61 1    
   118   61  116 1    
   119   61  117 1    
@<TRIPOS>SUBSTRUCTURE
     1 UNK         1 GROUP             0       ****    0 ROOT    
