@<TRIPOS>MOLECULE
3R8
117   119    1
SMALL
USER_CHARGES


@<TRIPOS>ATOM
      1 CA         15.9702  -27.1478  -40.8601 C.3       0 UNK        -0.2013 
      2 C          15.8264  -26.4628  -42.2111 C.2       0 UNK         0.4866 
      3 O          14.8073  -25.8178  -42.4597 O.2       0 UNK        -0.5176 
      4 N          16.8345  -26.5905  -43.0814 N.am      1 UNK        -0.4884 
      5 CA         16.8923  -25.9401  -44.3894 C.3       1 UNK         0.0853 
      6 C6         16.0521  -26.6697  -45.4804 C.3       10 UNK        -0.0849 
      7 S7         16.7758  -28.1573  -46.2575 S.3       10 UNK        -0.2776 
      8 C8         16.4450  -29.4769  -45.0410 C.3       10 UNK         0.0316 
      9 C9         17.6775  -29.7848  -44.2001 C.ar      10 UNK        -0.0863 
     10 C10        17.6173  -29.7638  -42.8047 C.ar      10 UNK        -0.1009 
     11 C11        18.7568  -30.0209  -42.0356 C.ar      10 UNK        -0.0712 
     12 C12        19.9708  -30.2894  -42.6828 C.ar      10 UNK        -0.0894 
     13 C13        20.0354  -30.3645  -44.0773 C.ar      10 UNK        -0.0745 
     14 C14        18.8805  -30.1203  -44.8248 C.ar      10 UNK        -0.0972 
     15 C15        21.3320  -30.7711  -44.7702 C.3       10 UNK         0.0209 
     16 S16        21.7090  -29.7517  -46.2334 S.3       10 UNK        -0.2568 
     17 C17        22.9880  -28.6125  -45.6091 C.3       10 UNK        -0.0983 
     18 CA         22.4719  -27.3768  -44.8212 C.3       3 UNK         0.0876 
     19 N          21.2987  -26.7481  -45.4375 N.am      3 UNK        -0.4424 
     20 C          21.2763  -25.5194  -45.9664 C.2       2 UNK         0.4918 
     21 O          22.2467  -24.7612  -45.9776 O.2       2 UNK        -0.4875 
     22 CA         19.9537  -25.0331  -46.5915 C.3       2 UNK         0.0481 
     23 CB         19.9603  -25.3043  -48.1045 C.3       2 UNK        -0.1831 
     24 N          18.7107  -25.5685  -46.0189 N.am      2 UNK        -0.4498 
     25 C          18.3548  -25.5779  -44.7267 C.2       1 UNK         0.5027 
     26 O          19.1245  -25.2804  -43.8099 O.2       1 UNK        -0.4969 
     27 C          22.2815  -27.6276  -43.3113 C.2       3 UNK         0.5005 
     28 O          23.0187  -28.4301  -42.7333 O.2       3 UNK        -0.5279 
     29 N          21.3632  -26.8974  -42.6566 N.am      4 UNK        -0.4463 
     30 CA         21.1749  -26.9338  -41.1981 C.3       4 UNK         0.0283 
     31 CB         19.9455  -26.1010  -40.8086 C.3       4 UNK        -0.1875 
     32 C          22.4070  -26.4744  -40.3939 C.2       4 UNK         0.4949 
     33 O          22.5681  -26.8981  -39.2506 O.2       4 UNK        -0.5039 
     34 N          23.2695  -25.6529  -41.0112 N.am      5 UNK        -0.4663 
     35 CA         24.5699  -25.2470  -40.4701 C.3       5 UNK         0.0242 
     36 CB         25.1204  -24.0749  -41.2984 C.3       5 UNK        -0.1982 
     37 C          25.5907  -26.4001  -40.4207 C.2       5 UNK         0.5017 
     38 O          26.4237  -26.4233  -39.5143 O.2       5 UNK        -0.5012 
     39 N          25.5032  -27.3355  -41.3791 N.am      6 UNK        -0.4439 
     40 CA         26.2790  -28.5800  -41.3951 C.3       6 UNK         0.0297 
     41 CB         26.4229  -29.0809  -42.8418 C.3       6 UNK        -0.2006 
     42 C          25.6326  -29.6613  -40.5115 C.2       6 UNK         0.4892 
     43 O          26.3468  -30.5168  -39.9887 O.2       6 UNK        -0.5089 
     44 N          24.3013  -29.5870  -40.3618 N.am      7 UNK        -0.4243 
     45 CA         23.4337  -30.4362  -39.5411 C.3       7 UNK         0.0196 
     46 CB         23.8040  -30.3445  -38.0459 C.3       7 UNK        -0.2007 
     47 C          23.3326  -31.8841  -40.0525 C.2       7 UNK         0.5020 
     48 O          23.0769  -32.7992  -39.2683 O.2       7 UNK        -0.5147 
     49 N          23.4727  -32.0732  -41.3715 N.am      8 UNK        -0.4734 
     50 CA         23.2975  -33.3549  -42.0652 C.3       8 UNK         0.0238 
     51 CB         24.1541  -33.3449  -43.3459 C.3       8 UNK        -0.1912 
     52 C          21.8074  -33.6458  -42.3448 C.2       8 UNK         0.5038 
     53 O          21.4393  -33.9381  -43.4831 O.2       8 UNK        -0.5046 
     54 N          20.9735  -33.5113  -41.3070 N.am      9 UNK        -0.4200 
     55 CA         19.5032  -33.5200  -41.3788 C.3       9 UNK         0.0839 
     56 C          18.8575  -34.9140  -41.6255 C.2       9 UNK         0.5513 
     57 N          19.5997  -36.0132  -41.5695 N.am      9 UNK        -0.7519 
     58 O          17.6573  -34.9988  -41.8725 O.2       9 UNK        -0.4960 
     59 C59        18.8546  -32.8157  -40.1520 C.3       10 UNK        -0.0876 
     60 S60        19.6588  -31.2467  -39.6614 S.3       10 UNK        -0.2414 
     61 C61        18.6496  -29.9895  -40.5123 C.3       10 UNK         0.0169 
     62 H62        15.7890  -26.4335  -40.0574 H         1 UNK         0.0903 
     63 H63        15.2429  -27.9539  -40.7681 H         1 UNK         0.0903 
     64 H64        16.9645  -27.5657  -40.7164 H         1 UNK         0.0903 
     65 H65        17.6677  -27.1065  -42.8341 H         1 UNK         0.3096 
     66 H66        16.4289  -24.9583  -44.2644 H         1 UNK         0.1121 
     67 H67        15.8400  -25.9673  -46.2883 H         1 UNK         0.0849 
     68 H68        15.0696  -26.9286  -45.0829 H         1 UNK         0.0849 
     69 H69        15.5947  -29.2040  -44.4144 H         1 UNK         0.0865 
     70 H70        16.1545  -30.3822  -45.5756 H         1 UNK         0.0865 
     71 H71        16.6773  -29.5490  -42.3164 H         1 UNK         0.1346 
     72 H72        20.8610  -30.4777  -42.0996 H         1 UNK         0.1412 
     73 H73        18.9168  -30.1822  -45.9039 H         1 UNK         0.1426 
     74 H74        21.2309  -31.8064  -45.0965 H         1 UNK         0.0716 
     75 H75        22.1710  -30.7484  -44.0741 H         1 UNK         0.0716 
     76 H76        23.5175  -28.2507  -46.4916 H         1 UNK         0.0695 
     77 H77        23.7380  -29.1762  -45.0523 H         1 UNK         0.0695 
     78 H78        23.2993  -26.6644  -44.8347 H         1 UNK         0.0983 
     79 H79        20.4619  -27.3132  -45.4756 H         1 UNK         0.3095 
     80 H80        19.9185  -23.9518  -46.4460 H         1 UNK         0.0454 
     81 H81        19.1038  -24.8433  -48.5967 H         1 UNK         0.0851 
     82 H82        19.9386  -26.3732  -48.3213 H         1 UNK         0.0851 
     83 H83        20.8567  -24.8953  -48.5731 H         1 UNK         0.0851 
     84 H84        18.0260  -25.8980  -46.6854 H         1 UNK         0.2976 
     85 H85        20.7709  -26.2571  -43.1781 H         1 UNK         0.3116 
     86 H86        20.9856  -27.9721  -40.9204 H         1 UNK         0.0646 
     87 H87        19.0461  -26.4812  -41.2874 H         1 UNK         0.0847 
     88 H88        20.0595  -25.0544  -41.0934 H         1 UNK         0.0847 
     89 H89        19.7750  -26.1317  -39.7315 H         1 UNK         0.0847 
     90 H90        23.0351  -25.3252  -41.9370 H         1 UNK         0.3040 
     91 H91        24.4176  -24.9016  -39.4448 H         1 UNK         0.1015 
     92 H92        26.0789  -23.7352  -40.9031 H         1 UNK         0.0786 
     93 H93        24.4430  -23.2210  -41.2769 H         1 UNK         0.0786 
     94 H94        25.2786  -24.3534  -42.3411 H         1 UNK         0.0786 
     95 H95        24.7576  -27.2627  -42.0585 H         1 UNK         0.3172 
     96 H96        27.2801  -28.3820  -41.0059 H         1 UNK         0.0595 
     97 H97        25.4600  -29.3364  -43.2838 H         1 UNK         0.0839 
     98 H98        27.0435  -29.9771  -42.8810 H         1 UNK         0.0839 
     99 H99        26.8964  -28.3320  -43.4768 H         1 UNK         0.0839 
    100 H100       23.8169  -28.8956  -40.9242 H         1 UNK         0.2998 
    101 H101       22.4335  -30.0148  -39.6489 H         1 UNK         0.0822 
    102 H102       23.8530  -29.3067  -37.7152 H         1 UNK         0.0787 
    103 H103       23.0573  -30.8449  -37.4280 H         1 UNK         0.0787 
    104 H104       24.7659  -30.8123  -37.8353 H         1 UNK         0.0787 
    105 H105       23.6544  -31.2636  -41.9478 H         1 UNK         0.3055 
    106 H106       23.6652  -34.1612  -41.4263 H         1 UNK         0.1106 
    107 H107       23.8312  -32.5744  -44.0465 H         1 UNK         0.0828 
    108 H108       24.0928  -34.3026  -43.8645 H         1 UNK         0.0828 
    109 H109       25.2057  -33.1705  -43.1176 H         1 UNK         0.0828 
    110 H110       21.3738  -33.2813  -40.4051 H         1 UNK         0.2931 
    111 H111       19.2371  -32.9309  -42.2576 H         1 UNK         0.0412 
    112 H112       19.1704  -36.9105  -41.7333 H         1 UNK         0.3472 
    113 H113       20.5861  -35.9519  -41.3745 H         1 UNK         0.3472 
    114 H114       17.7956  -32.6289  -40.3401 H         1 UNK         0.0970 
    115 H115       18.8901  -33.4757  -39.2832 H         1 UNK         0.0970 
    116 H116       17.6123  -30.1134  -40.1976 H         1 UNK         0.0612 
    117 H117       18.9612  -29.0058  -40.1619 H         1 UNK         0.0612 
@<TRIPOS>BOND
     1    1    2 1    
     2    1   62 1    
     3    1   63 1    
     4    1   64 1    
     5    2    3 2    
     6    2    4 am   BACKBONE|DICT|INTERRES
     7    4    5 1    
     8    4   65 1    
     9    5    6 1    
    10    5   25 1    
    11    5   66 1    
    12    6    7 1    
    13    6   67 1    
    14    6   68 1    
    15    7    8 1    
    16    8    9 1    
    17    8   69 1    
    18    8   70 1    
    19    9   10 ar   
    20    9   14 ar   
    21   10   11 ar   
    22   10   71 1    
    23   11   12 ar   
    24   11   61 1    
    25   12   13 ar   
    26   12   72 1    
    27   13   14 ar   
    28   13   15 1    
    29   14   73 1    
    30   15   16 1    
    31   15   74 1    
    32   15   75 1    
    33   16   17 1    
    34   17   18 1    
    35   17   76 1    
    36   17   77 1    
    37   18   19 1    
    38   18   27 1    
    39   18   78 1    
    40   19   20 am   BACKBONE|DICT|INTERRES
    41   19   79 1    
    42   20   21 2    
    43   20   22 1    
    44   22   23 1    
    45   22   24 1    
    46   22   80 1    
    47   23   81 1    
    48   23   82 1    
    49   23   83 1    
    50   24   25 am   BACKBONE|DICT|INTERRES
    51   24   84 1    
    52   25   26 2    
    53   27   28 2    
    54   27   29 am   BACKBONE|DICT|INTERRES
    55   29   30 1    
    56   29   85 1    
    57   30   31 1    
    58   30   32 1    
    59   30   86 1    
    60   31   87 1    
    61   31   88 1    
    62   31   89 1    
    63   32   33 2    
    64   32   34 am   BACKBONE|DICT|INTERRES
    65   34   35 1    
    66   34   90 1    
    67   35   36 1    
    68   35   37 1    
    69   35   91 1    
    70   36   92 1    
    71   36   93 1    
    72   36   94 1    
    73   37   38 2    
    74   37   39 am   BACKBONE|DICT|INTERRES
    75   39   40 1    
    76   39   95 1    
    77   40   41 1    
    78   40   42 1    
    79   40   96 1    
    80   41   97 1    
    81   41   98 1    
    82   41   99 1    
    83   42   43 2    
    84   42   44 am   BACKBONE|DICT|INTERRES
    85   44   45 1    
    86   44  100 1    
    87   45   46 1    
    88   45   47 1    
    89   45  101 1    
    90   46  102 1    
    91   46  103 1    
    92   46  104 1    
    93   47   48 2    
    94   47   49 am   BACKBONE|DICT|INTERRES
    95   49   50 1    
    96   49  105 1    
    97   50   51 1    
    98   50   52 1    
    99   50  106 1    
   100   51  107 1    
   101   51  108 1    
   102   51  109 1    
   103   52   53 2    
   104   52   54 am   BACKBONE|DICT|INTERRES
   105   54   55 1    
   106   54  110 1    
   107   55   56 1    
   108   55   59 1    
   109   55  111 1    
   110   56   57 am   BACKBONE|DICT|INTERRES
   111   56   58 2    
   112   57  112 1    
   113   57  113 1    
   114   59   60 1    
   115   59  114 1    
   116   59  115 1    
   117   60   61 1    
   118   61  116 1    
   119   61  117 1    
@<TRIPOS>SUBSTRUCTURE
     1 UNK         1 GROUP             0       ****    0 ROOT    
