@<TRIPOS>MOLECULE
3R8
117   119    1
SMALL
USER_CHARGES


@<TRIPOS>ATOM
      1 CA         16.4230  -21.7153  -44.6629 C.3       0 UNK        -0.2013 
      2 C          16.6083  -22.5439  -43.3934 C.2       0 UNK         0.4866 
      3 O          16.4406  -22.0104  -42.2983 O.2       0 UNK        -0.5176 
      4 N          16.9331  -23.8419  -43.4753 N.am      1 UNK        -0.4884 
      5 CA         17.2386  -24.6116  -44.6876 C.3       1 UNK         0.0853 
      6 C6         17.3270  -26.1261  -44.3872 C.3       10 UNK        -0.0849 
      7 S7         15.7283  -26.8634  -43.9048 S.3       10 UNK        -0.2776 
      8 C8         16.2128  -27.9906  -42.5425 C.3       10 UNK         0.0316 
      9 C9         17.3006  -29.0214  -42.8675 C.ar      10 UNK        -0.0863 
     10 C10        17.9425  -29.6732  -41.8078 C.ar      10 UNK        -0.1009 
     11 C11        18.9727  -30.5883  -42.0472 C.ar      10 UNK        -0.0712 
     12 C12        19.3832  -30.8325  -43.3607 C.ar      10 UNK        -0.0894 
     13 C13        18.7553  -30.1913  -44.4311 C.ar      10 UNK        -0.0745 
     14 C14        17.6882  -29.3265  -44.1792 C.ar      10 UNK        -0.0972 
     15 C15        19.2481  -30.4036  -45.8585 C.3       10 UNK         0.0209 
     16 S16        19.8031  -28.8479  -46.6454 S.3       10 UNK        -0.2568 
     17 C17        21.0005  -28.2311  -45.4169 C.3       10 UNK        -0.0983 
     18 CA         21.8767  -27.0400  -45.9008 C.3       3 UNK         0.0876 
     19 N          21.0750  -25.8590  -46.2135 N.am      3 UNK        -0.4424 
     20 C          20.7576  -25.3988  -47.4254 C.2       2 UNK         0.4918 
     21 O          21.1026  -25.9402  -48.4771 O.2       2 UNK        -0.4875 
     22 CA         19.8808  -24.1281  -47.4520 C.3       2 UNK         0.0481 
     23 CB         19.4937  -23.7036  -48.8809 C.3       2 UNK        -0.1831 
     24 N          18.6586  -24.3177  -46.6631 N.am      2 UNK        -0.4498 
     25 C          18.5637  -24.1618  -45.3356 C.2       1 UNK         0.5027 
     26 O          19.4907  -23.7601  -44.6288 O.2       1 UNK        -0.4969 
     27 C          22.8435  -26.6439  -44.7716 C.2       3 UNK         0.5005 
     28 O          22.6531  -25.6052  -44.1290 O.2       3 UNK        -0.5279 
     29 N          23.7954  -27.5332  -44.4567 N.am      4 UNK        -0.4463 
     30 CA         24.4912  -27.5593  -43.1661 C.3       4 UNK         0.0283 
     31 CB         25.7965  -28.3639  -43.3053 C.3       4 UNK        -0.1875 
     32 C          23.5387  -28.1601  -42.1149 C.2       4 UNK         0.4949 
     33 O          23.6952  -29.3219  -41.7346 O.2       4 UNK        -0.5039 
     34 N          22.5112  -27.3815  -41.7467 N.am      5 UNK        -0.4663 
     35 CA         21.2704  -27.7803  -41.0673 C.3       5 UNK         0.0242 
     36 CB         20.2389  -26.6482  -41.2295 C.3       5 UNK        -0.1982 
     37 C          21.4161  -28.2488  -39.6028 C.2       5 UNK         0.5017 
     38 O          20.6112  -27.8799  -38.7464 O.2       5 UNK        -0.5012 
     39 N          22.4240  -29.0833  -39.3574 N.am      6 UNK        -0.4439 
     40 CA         22.6985  -29.8108  -38.1267 C.3       6 UNK         0.0297 
     41 CB         23.3290  -28.8962  -37.0596 C.3       6 UNK        -0.2006 
     42 C          23.5999  -30.9962  -38.4801 C.2       6 UNK         0.4892 
     43 O          23.2055  -32.1411  -38.2655 O.2       6 UNK        -0.5089 
     44 N          24.7653  -30.6997  -39.0766 N.am      7 UNK        -0.4243 
     45 CA         25.7571  -31.6789  -39.5329 C.3       7 UNK         0.0196 
     46 CB         27.0153  -30.9431  -40.0196 C.3       7 UNK        -0.2007 
     47 C          25.2309  -32.6235  -40.6259 C.2       7 UNK         0.5020 
     48 O          25.5255  -33.8181  -40.5841 O.2       7 UNK        -0.5147 
     49 N          24.4216  -32.0919  -41.5538 N.am      8 UNK        -0.4734 
     50 CA         23.7583  -32.8547  -42.6188 C.3       8 UNK         0.0238 
     51 CB         23.1603  -31.8742  -43.6418 C.3       8 UNK        -0.1912 
     52 C          22.6835  -33.8363  -42.1101 C.2       8 UNK         0.5038 
     53 O          22.3026  -34.7411  -42.8536 O.2       8 UNK        -0.5046 
     54 N          22.2299  -33.6467  -40.8656 N.am      9 UNK        -0.4200 
     55 CA         21.2996  -34.5233  -40.1430 C.3       9 UNK         0.0839 
     56 C          22.0220  -35.4619  -39.1315 C.2       9 UNK         0.5513 
     57 N          23.3493  -35.5029  -39.0757 N.am      9 UNK        -0.7519 
     58 O          21.3645  -36.1937  -38.3958 O.2       9 UNK        -0.4960 
     59 C59        20.1658  -33.6972  -39.4766 C.3       10 UNK        -0.0876 
     60 S60        19.0240  -32.9933  -40.7137 S.3       10 UNK        -0.2414 
     61 C61        19.6604  -31.3006  -40.8922 C.3       10 UNK         0.0169 
     62 H62        15.8102  -22.2344  -45.3985 H         1 UNK         0.0903 
     63 H63        15.9225  -20.7754  -44.4307 H         1 UNK         0.0903 
     64 H64        17.3869  -21.4738  -45.1100 H         1 UNK         0.0903 
     65 H65        17.0431  -24.3552  -42.6131 H         1 UNK         0.3096 
     66 H66        16.4329  -24.4544  -45.4073 H         1 UNK         0.1121 
     67 H67        17.6736  -26.6666  -45.2705 H         1 UNK         0.0849 
     68 H68        18.0685  -26.3178  -43.6094 H         1 UNK         0.0849 
     69 H69        16.5401  -27.3785  -41.7005 H         1 UNK         0.0865 
     70 H70        15.3226  -28.5234  -42.2057 H         1 UNK         0.0865 
     71 H71        17.6420  -29.4645  -40.7899 H         1 UNK         0.1346 
     72 H72        20.1888  -31.5279  -43.5470 H         1 UNK         0.1412 
     73 H73        17.1953  -28.8650  -45.0215 H         1 UNK         0.1426 
     74 H74        18.4437  -30.8362  -46.4547 H         1 UNK         0.0716 
     75 H75        20.0703  -31.1205  -45.8819 H         1 UNK         0.0716 
     76 H76        20.4426  -27.9469  -44.5218 H         1 UNK         0.0695 
     77 H77        21.6263  -29.0774  -45.1269 H         1 UNK         0.0695 
     78 H78        22.4678  -27.3374  -46.7698 H         1 UNK         0.0983 
     79 H79        20.8349  -25.2924  -45.4064 H         1 UNK         0.3095 
     80 H80        20.4700  -23.3183  -47.0166 H         1 UNK         0.0454 
     81 H81        20.3812  -23.5122  -49.4854 H         1 UNK         0.0851 
     82 H82        18.9129  -24.4741  -49.3895 H         1 UNK         0.0851 
     83 H83        18.9044  -22.7866  -48.8766 H         1 UNK         0.0851 
     84 H84        17.8686  -24.6979  -47.1658 H         1 UNK         0.2976 
     85 H85        23.8834  -28.3658  -45.0221 H         1 UNK         0.3116 
     86 H86        24.7489  -26.5428  -42.8609 H         1 UNK         0.0646 
     87 H87        26.3409  -28.3821  -42.3608 H         1 UNK         0.0847 
     88 H88        26.4578  -27.9197  -44.0492 H         1 UNK         0.0847 
     89 H89        25.6134  -29.3990  -43.5961 H         1 UNK         0.0847 
     90 H90        22.4971  -26.4527  -42.1532 H         1 UNK         0.3040 
     91 H91        20.8862  -28.6409  -41.6160 H         1 UNK         0.1015 
     92 H92        20.5405  -25.7505  -40.6887 H         1 UNK         0.0786 
     93 H93        20.1066  -26.3794  -42.2777 H         1 UNK         0.0786 
     94 H94        19.2609  -26.9483  -40.8505 H         1 UNK         0.0786 
     95 H95        23.0044  -29.3237  -40.1623 H         1 UNK         0.3172 
     96 H96        21.7579  -30.2086  -37.7393 H         1 UNK         0.0595 
     97 H97        22.6356  -28.1139  -36.7508 H         1 UNK         0.0839 
     98 H98        24.2366  -28.4108  -37.4193 H         1 UNK         0.0839 
     99 H99        23.5918  -29.4641  -36.1661 H         1 UNK         0.0839 
    100 H100       24.9979  -29.7280  -39.2220 H         1 UNK         0.2998 
    101 H101       26.0306  -32.2939  -38.6728 H         1 UNK         0.0822 
    102 H102       27.4514  -30.3336  -39.2279 H         1 UNK         0.0787 
    103 H103       27.7811  -31.6509  -40.3404 H         1 UNK         0.0787 
    104 H104       26.7989  -30.2916  -40.8667 H         1 UNK         0.0787 
    105 H105       24.2334  -31.0918  -41.5301 H         1 UNK         0.3055 
    106 H106       24.5179  -33.4548  -43.1248 H         1 UNK         0.1106 
    107 H107       22.4425  -31.1985  -43.1777 H         1 UNK         0.0828 
    108 H108       23.9365  -31.2660  -44.1056 H         1 UNK         0.0828 
    109 H109       22.6438  -32.4043  -44.4432 H         1 UNK         0.0828 
    110 H110       22.6492  -32.9155  -40.3069 H         1 UNK         0.2931 
    111 H111       20.8272  -35.2031  -40.8544 H         1 UNK         0.0412 
    112 H112       23.7919  -36.1243  -38.4175 H         1 UNK         0.3472 
    113 H113       23.9186  -34.9161  -39.6720 H         1 UNK         0.3472 
    114 H114       20.5743  -32.9077  -38.8432 H         1 UNK         0.0970 
    115 H115       19.5629  -34.3265  -38.8193 H         1 UNK         0.0970 
    116 H116       20.7364  -31.3232  -41.0677 H         1 UNK         0.0612 
    117 H117       19.5090  -30.7587  -39.9574 H         1 UNK         0.0612 
@<TRIPOS>BOND
     1    1    2 1    
     2    1   62 1    
     3    1   63 1    
     4    1   64 1    
     5    2    3 2    
     6    2    4 am   BACKBONE|DICT|INTERRES
     7    4    5 1    
     8    4   65 1    
     9    5    6 1    
    10    5   25 1    
    11    5   66 1    
    12    6    7 1    
    13    6   67 1    
    14    6   68 1    
    15    7    8 1    
    16    8    9 1    
    17    8   69 1    
    18    8   70 1    
    19    9   10 ar   
    20    9   14 ar   
    21   10   11 ar   
    22   10   71 1    
    23   11   12 ar   
    24   11   61 1    
    25   12   13 ar   
    26   12   72 1    
    27   13   14 ar   
    28   13   15 1    
    29   14   73 1    
    30   15   16 1    
    31   15   74 1    
    32   15   75 1    
    33   16   17 1    
    34   17   18 1    
    35   17   76 1    
    36   17   77 1    
    37   18   19 1    
    38   18   27 1    
    39   18   78 1    
    40   19   20 am   BACKBONE|DICT|INTERRES
    41   19   79 1    
    42   20   21 2    
    43   20   22 1    
    44   22   23 1    
    45   22   24 1    
    46   22   80 1    
    47   23   81 1    
    48   23   82 1    
    49   23   83 1    
    50   24   25 am   BACKBONE|DICT|INTERRES
    51   24   84 1    
    52   25   26 2    
    53   27   28 2    
    54   27   29 am   BACKBONE|DICT|INTERRES
    55   29   30 1    
    56   29   85 1    
    57   30   31 1    
    58   30   32 1    
    59   30   86 1    
    60   31   87 1    
    61   31   88 1    
    62   31   89 1    
    63   32   33 2    
    64   32   34 am   BACKBONE|DICT|INTERRES
    65   34   35 1    
    66   34   90 1    
    67   35   36 1    
    68   35   37 1    
    69   35   91 1    
    70   36   92 1    
    71   36   93 1    
    72   36   94 1    
    73   37   38 2    
    74   37   39 am   BACKBONE|DICT|INTERRES
    75   39   40 1    
    76   39   95 1    
    77   40   41 1    
    78   40   42 1    
    79   40   96 1    
    80   41   97 1    
    81   41   98 1    
    82   41   99 1    
    83   42   43 2    
    84   42   44 am   BACKBONE|DICT|INTERRES
    85   44   45 1    
    86   44  100 1    
    87   45   46 1    
    88   45   47 1    
    89   45  101 1    
    90   46  102 1    
    91   46  103 1    
    92   46  104 1    
    93   47   48 2    
    94   47   49 am   BACKBONE|DICT|INTERRES
    95   49   50 1    
    96   49  105 1    
    97   50   51 1    
    98   50   52 1    
    99   50  106 1    
   100   51  107 1    
   101   51  108 1    
   102   51  109 1    
   103   52   53 2    
   104   52   54 am   BACKBONE|DICT|INTERRES
   105   54   55 1    
   106   54  110 1    
   107   55   56 1    
   108   55   59 1    
   109   55  111 1    
   110   56   57 am   BACKBONE|DICT|INTERRES
   111   56   58 2    
   112   57  112 1    
   113   57  113 1    
   114   59   60 1    
   115   59  114 1    
   116   59  115 1    
   117   60   61 1    
   118   61  116 1    
   119   61  117 1    
@<TRIPOS>SUBSTRUCTURE
     1 UNK         1 GROUP             0       ****    0 ROOT    
