@<TRIPOS>MOLECULE
3R8
117   119    1
SMALL
USER_CHARGES


@<TRIPOS>ATOM
      1 CA         20.2128  -22.1556  -47.7008 C.3       0 UNK        -0.2013 
      2 C          20.4394  -22.9203  -46.4054 C.2       0 UNK         0.4866 
      3 O          20.7242  -22.3100  -45.3750 O.2       0 UNK        -0.5176 
      4 N          20.3155  -24.2530  -46.4481 N.am      1 UNK        -0.4884 
      5 CA         20.4810  -25.1492  -45.2961 C.3       1 UNK         0.0853 
      6 C6         20.7664  -26.6102  -45.7416 C.3       10 UNK        -0.0849 
      7 S7         19.5001  -27.3157  -46.8572 S.3       10 UNK        -0.2776 
      8 C8         19.8563  -29.1012  -46.7622 C.3       10 UNK         0.0316 
      9 C9         19.3706  -29.7365  -45.4640 C.ar      10 UNK        -0.0863 
     10 C10        20.2811  -30.0595  -44.4526 C.ar      10 UNK        -0.1009 
     11 C11        19.8467  -30.6786  -43.2766 C.ar      10 UNK        -0.0712 
     12 C12        18.4892  -30.9736  -43.1159 C.ar      10 UNK        -0.0894 
     13 C13        17.5678  -30.6645  -44.1206 C.ar      10 UNK        -0.0745 
     14 C14        18.0156  -30.0443  -45.2924 C.ar      10 UNK        -0.0972 
     15 C15        16.0945  -31.0146  -43.9393 C.3       10 UNK         0.0209 
     16 S16        15.0611  -29.5633  -43.5460 S.3       10 UNK        -0.2568 
     17 C17        15.7456  -29.0150  -41.9466 C.3       10 UNK        -0.0983 
     18 CA         16.8921  -27.9719  -42.0817 C.3       3 UNK         0.0876 
     19 N          16.4731  -26.6577  -42.5745 N.am      3 UNK        -0.4424 
     20 C          16.5552  -26.2729  -43.8523 C.2       2 UNK         0.4918 
     21 O          16.5604  -27.0395  -44.8140 O.2       2 UNK        -0.4875 
     22 CA         16.8117  -24.7767  -44.1197 C.3       2 UNK         0.0481 
     23 CB         16.7094  -23.8623  -42.8769 C.3       2 UNK        -0.1831 
     24 N          18.1239  -24.6375  -44.7668 N.am      2 UNK        -0.4498 
     25 C          19.3012  -25.0963  -44.3021 C.2       1 UNK         0.5027 
     26 O          19.4713  -25.5166  -43.1540 O.2       1 UNK        -0.4969 
     27 C          17.6615  -27.7379  -40.7647 C.2       3 UNK         0.5005 
     28 O          17.3992  -28.4086  -39.7649 O.2       3 UNK        -0.5279 
     29 N          18.5652  -26.7457  -40.7718 N.am      4 UNK        -0.4463 
     30 CA         19.2991  -26.2581  -39.5992 C.3       4 UNK         0.0283 
     31 CB         18.9801  -24.7638  -39.4153 C.3       4 UNK        -0.1875 
     32 C          20.8183  -26.4688  -39.7181 C.2       4 UNK         0.4949 
     33 O          21.5415  -26.1367  -38.7792 O.2       4 UNK        -0.5039 
     34 N          21.2883  -27.0045  -40.8537 N.am      5 UNK        -0.4663 
     35 CA         22.7100  -27.1713  -41.1784 C.3       5 UNK         0.0242 
     36 CB         22.8549  -27.2958  -42.7010 C.3       5 UNK        -0.1982 
     37 C          23.4221  -28.3243  -40.4401 C.2       5 UNK         0.5017 
     38 O          24.6346  -28.4684  -40.6026 O.2       5 UNK        -0.5012 
     39 N          22.6760  -29.1028  -39.6406 N.am      6 UNK        -0.4439 
     40 CA         23.1331  -30.1255  -38.6908 C.3       6 UNK         0.0297 
     41 CB         23.7390  -29.4467  -37.4418 C.3       6 UNK        -0.2006 
     42 C          24.0600  -31.1807  -39.3241 C.2       6 UNK         0.4892 
     43 O          23.5680  -32.0798  -40.0027 O.2       6 UNK        -0.5089 
     44 N          25.3773  -31.0459  -39.1107 N.am      7 UNK        -0.4243 
     45 CA         26.4331  -31.9369  -39.6069 C.3       7 UNK         0.0196 
     46 CB         27.7819  -31.4759  -39.0301 C.3       7 UNK        -0.2007 
     47 C          26.5172  -32.0611  -41.1414 C.2       7 UNK         0.5020 
     48 O          27.1491  -32.9978  -41.6303 O.2       7 UNK        -0.5147 
     49 N          25.8791  -31.1401  -41.8773 N.am      8 UNK        -0.4734 
     50 CA         25.7193  -31.2025  -43.3326 C.3       8 UNK         0.0238 
     51 CB         25.1962  -29.8499  -43.8353 C.3       8 UNK        -0.1912 
     52 C          24.7901  -32.3350  -43.8155 C.2       8 UNK         0.5038 
     53 O          24.8423  -32.6677  -45.0005 O.2       8 UNK        -0.5046 
     54 N          23.9618  -32.8933  -42.9230 N.am      9 UNK        -0.4200 
     55 CA         23.0462  -34.0081  -43.1963 C.3       9 UNK         0.0839 
     56 C          23.2315  -35.1732  -42.1836 C.2       9 UNK         0.5513 
     57 N          22.4871  -36.2600  -42.3431 N.am      9 UNK        -0.7519 
     58 O          24.0567  -35.1254  -41.2732 O.2       9 UNK        -0.4960 
     59 C59        21.5787  -33.5177  -43.3454 C.3       10 UNK        -0.0876 
     60 S60        20.8533  -32.8211  -41.8185 S.3       10 UNK        -0.2414 
     61 C61        20.8412  -31.0360  -42.1800 C.3       10 UNK         0.0169 
     62 H62        19.9710  -22.8200  -48.5303 H         1 UNK         0.0903 
     63 H63        19.3914  -21.4496  -47.5811 H         1 UNK         0.0903 
     64 H64        21.1083  -21.5945  -47.9665 H         1 UNK         0.0903 
     65 H65        20.0806  -24.7115  -47.3185 H         1 UNK         0.3096 
     66 H66        21.3532  -24.8033  -44.7367 H         1 UNK         0.1121 
     67 H67        21.7290  -26.6537  -46.2534 H         1 UNK         0.0849 
     68 H68        20.8664  -27.2589  -44.8709 H         1 UNK         0.0849 
     69 H69        19.3691  -29.5969  -47.6031 H         1 UNK         0.0865 
     70 H70        20.9265  -29.2654  -46.8985 H         1 UNK         0.0865 
     71 H71        21.3312  -29.8401  -44.5879 H         1 UNK         0.1346 
     72 H72        18.1535  -31.4546  -42.2072 H         1 UNK         0.1412 
     73 H73        17.3060  -29.7943  -46.0696 H         1 UNK         0.1426 
     74 H74        15.9694  -31.7654  -43.1574 H         1 UNK         0.0716 
     75 H75        15.7204  -31.4701  -44.8571 H         1 UNK         0.0716 
     76 H76        16.0888  -29.9051  -41.4161 H         1 UNK         0.0695 
     77 H77        14.9320  -28.6029  -41.3476 H         1 UNK         0.0695 
     78 H78        17.6406  -28.3648  -42.7705 H         1 UNK         0.0983 
     79 H79        16.4383  -25.9383  -41.8665 H         1 UNK         0.3095 
     80 H80        16.0616  -24.4512  -44.8418 H         1 UNK         0.0454 
     81 H81        15.7210  -23.9263  -42.4200 H         1 UNK         0.0851 
     82 H82        16.8610  -22.8190  -43.1538 H         1 UNK         0.0851 
     83 H83        17.4489  -24.1025  -42.1132 H         1 UNK         0.0851 
     84 H84        18.1030  -24.3492  -45.7345 H         1 UNK         0.2976 
     85 H85        18.7698  -26.2671  -41.6500 H         1 UNK         0.3116 
     86 H86        18.9791  -26.7862  -38.6988 H         1 UNK         0.0646 
     87 H87        17.9104  -24.5992  -39.2864 H         1 UNK         0.0847 
     88 H88        19.3108  -24.1734  -40.2709 H         1 UNK         0.0847 
     89 H89        19.4754  -24.3613  -38.5306 H         1 UNK         0.0847 
     90 H90        20.6270  -27.2338  -41.5813 H         1 UNK         0.3040 
     91 H91        23.2281  -26.2585  -40.8749 H         1 UNK         0.1015 
     92 H92        23.9042  -27.3508  -42.9917 H         1 UNK         0.0786 
     93 H93        22.4372  -26.4240  -43.2025 H         1 UNK         0.0786 
     94 H94        22.3510  -28.1830  -43.0829 H         1 UNK         0.0786 
     95 H95        21.6867  -28.9033  -39.6187 H         1 UNK         0.3172 
     96 H96        22.2409  -30.6643  -38.3677 H         1 UNK         0.0595 
     97 H97        24.5809  -28.7986  -37.6876 H         1 UNK         0.0839 
     98 H98        24.0858  -30.1859  -36.7181 H         1 UNK         0.0839 
     99 H99        22.9947  -28.8316  -36.9356 H         1 UNK         0.0839 
    100 H100       25.6831  -30.2434  -38.5799 H         1 UNK         0.2998 
    101 H101       26.2184  -32.9365  -39.2232 H         1 UNK         0.0822 
    102 H102       27.7720  -31.4820  -37.9399 H         1 UNK         0.0787 
    103 H103       28.5902  -32.1366  -39.3473 H         1 UNK         0.0787 
    104 H104       28.0366  -30.4679  -39.3601 H         1 UNK         0.0787 
    105 H105       25.4119  -30.3804  -41.3942 H         1 UNK         0.3055 
    106 H106       26.7033  -31.3786  -43.7728 H         1 UNK         0.1106 
    107 H107       25.8273  -29.0253  -43.5033 H         1 UNK         0.0828 
    108 H108       25.1686  -29.8210  -44.9254 H         1 UNK         0.0828 
    109 H109       24.1828  -29.6696  -43.4801 H         1 UNK         0.0828 
    110 H110       23.9941  -32.6000  -41.9510 H         1 UNK         0.2931 
    111 H111       23.3270  -34.4510  -44.1535 H         1 UNK         0.0412 
    112 H112       22.6013  -37.0280  -41.6999 H         1 UNK         0.3472 
    113 H113       21.8142  -36.3300  -43.0902 H         1 UNK         0.3472 
    114 H114       21.5248  -32.7788  -44.1457 H         1 UNK         0.0970 
    115 H115       20.9374  -34.3358  -43.6757 H         1 UNK         0.0970 
    116 H116       21.8525  -30.7188  -42.4395 H         1 UNK         0.0612 
    117 H117       20.5715  -30.4975  -41.2710 H         1 UNK         0.0612 
@<TRIPOS>BOND
     1    1    2 1    
     2    1   62 1    
     3    1   63 1    
     4    1   64 1    
     5    2    3 2    
     6    2    4 am   BACKBONE|DICT|INTERRES
     7    4    5 1    
     8    4   65 1    
     9    5    6 1    
    10    5   25 1    
    11    5   66 1    
    12    6    7 1    
    13    6   67 1    
    14    6   68 1    
    15    7    8 1    
    16    8    9 1    
    17    8   69 1    
    18    8   70 1    
    19    9   10 ar   
    20    9   14 ar   
    21   10   11 ar   
    22   10   71 1    
    23   11   12 ar   
    24   11   61 1    
    25   12   13 ar   
    26   12   72 1    
    27   13   14 ar   
    28   13   15 1    
    29   14   73 1    
    30   15   16 1    
    31   15   74 1    
    32   15   75 1    
    33   16   17 1    
    34   17   18 1    
    35   17   76 1    
    36   17   77 1    
    37   18   19 1    
    38   18   27 1    
    39   18   78 1    
    40   19   20 am   BACKBONE|DICT|INTERRES
    41   19   79 1    
    42   20   21 2    
    43   20   22 1    
    44   22   23 1    
    45   22   24 1    
    46   22   80 1    
    47   23   81 1    
    48   23   82 1    
    49   23   83 1    
    50   24   25 am   BACKBONE|DICT|INTERRES
    51   24   84 1    
    52   25   26 2    
    53   27   28 2    
    54   27   29 am   BACKBONE|DICT|INTERRES
    55   29   30 1    
    56   29   85 1    
    57   30   31 1    
    58   30   32 1    
    59   30   86 1    
    60   31   87 1    
    61   31   88 1    
    62   31   89 1    
    63   32   33 2    
    64   32   34 am   BACKBONE|DICT|INTERRES
    65   34   35 1    
    66   34   90 1    
    67   35   36 1    
    68   35   37 1    
    69   35   91 1    
    70   36   92 1    
    71   36   93 1    
    72   36   94 1    
    73   37   38 2    
    74   37   39 am   BACKBONE|DICT|INTERRES
    75   39   40 1    
    76   39   95 1    
    77   40   41 1    
    78   40   42 1    
    79   40   96 1    
    80   41   97 1    
    81   41   98 1    
    82   41   99 1    
    83   42   43 2    
    84   42   44 am   BACKBONE|DICT|INTERRES
    85   44   45 1    
    86   44  100 1    
    87   45   46 1    
    88   45   47 1    
    89   45  101 1    
    90   46  102 1    
    91   46  103 1    
    92   46  104 1    
    93   47   48 2    
    94   47   49 am   BACKBONE|DICT|INTERRES
    95   49   50 1    
    96   49  105 1    
    97   50   51 1    
    98   50   52 1    
    99   50  106 1    
   100   51  107 1    
   101   51  108 1    
   102   51  109 1    
   103   52   53 2    
   104   52   54 am   BACKBONE|DICT|INTERRES
   105   54   55 1    
   106   54  110 1    
   107   55   56 1    
   108   55   59 1    
   109   55  111 1    
   110   56   57 am   BACKBONE|DICT|INTERRES
   111   56   58 2    
   112   57  112 1    
   113   57  113 1    
   114   59   60 1    
   115   59  114 1    
   116   59  115 1    
   117   60   61 1    
   118   61  116 1    
   119   61  117 1    
@<TRIPOS>SUBSTRUCTURE
     1 UNK         1 GROUP             0       ****    0 ROOT    
