@<TRIPOS>MOLECULE
3R8
117   119    1
SMALL
USER_CHARGES


@<TRIPOS>ATOM
      1 CA         17.5302  -24.3473  -48.4305 C.3       0 UNK        -0.2013 
      2 C          18.8615  -24.8713  -47.9133 C.2       0 UNK         0.4866 
      3 O          19.8753  -24.1812  -48.0204 O.2       0 UNK        -0.5176 
      4 N          18.8666  -26.0883  -47.3542 N.am      1 UNK        -0.4884 
      5 CA         20.0591  -26.7574  -46.8143 C.3       1 UNK         0.0853 
      6 C6         19.8064  -28.2607  -46.5345 C.3       10 UNK        -0.0849 
      7 S7         19.1915  -29.2140  -47.9669 S.3       10 UNK        -0.2776 
      8 C8         17.4410  -29.5395  -47.5360 C.3       10 UNK         0.0316 
      9 C9         17.2275  -30.0649  -46.1169 C.ar      10 UNK        -0.0863 
     10 C10        18.0205  -31.0946  -45.6001 C.ar      10 UNK        -0.1009 
     11 C11        17.8573  -31.5317  -44.2810 C.ar      10 UNK        -0.0712 
     12 C12        16.8569  -30.9607  -43.4875 C.ar      10 UNK        -0.0894 
     13 C13        16.0352  -29.9521  -44.0018 C.ar      10 UNK        -0.0745 
     14 C14        16.2307  -29.5052  -45.3120 C.ar      10 UNK        -0.0972 
     15 C15        14.9164  -29.3545  -43.1604 C.3       10 UNK         0.0209 
     16 S16        15.3585  -27.7137  -42.5076 S.3       10 UNK        -0.2568 
     17 C17        16.3770  -28.1476  -41.0575 C.3       10 UNK        -0.0983 
     18 CA         17.8977  -28.1341  -41.3502 C.3       3 UNK         0.0876 
     19 N          18.3371  -26.8541  -41.9221 N.am      3 UNK        -0.4424 
     20 C          19.4971  -26.6661  -42.5613 C.2       2 UNK         0.4918 
     21 O          20.3798  -27.5204  -42.6353 O.2       2 UNK        -0.4875 
     22 CA         19.6568  -25.3169  -43.2838 C.3       2 UNK         0.0481 
     23 CB         20.8944  -24.5301  -42.8081 C.3       2 UNK        -0.1831 
     24 N          19.6265  -25.5449  -44.7328 N.am      2 UNK        -0.4498 
     25 C          20.5660  -26.1166  -45.5055 C.2       1 UNK         0.5027 
     26 O          21.7583  -26.2155  -45.2147 O.2       1 UNK        -0.4969 
     27 C          18.6843  -28.5643  -40.0936 C.2       3 UNK         0.5005 
     28 O          18.5924  -29.7290  -39.7035 O.2       3 UNK        -0.5279 
     29 N          19.4236  -27.6338  -39.4811 N.am      4 UNK        -0.4463 
     30 CA         20.3119  -27.8575  -38.3486 C.3       4 UNK         0.0283 
     31 CB         19.5990  -27.4539  -37.0470 C.3       4 UNK        -0.1875 
     32 C          21.5804  -27.0261  -38.5643 C.2       4 UNK         0.4949 
     33 O          21.5227  -25.9935  -39.2375 O.2       4 UNK        -0.5039 
     34 N          22.6868  -27.4852  -37.9633 N.am      5 UNK        -0.4663 
     35 CA         24.0282  -26.8848  -37.9928 C.3       5 UNK         0.0242 
     36 CB         24.0337  -25.5200  -37.2695 C.3       5 UNK        -0.1982 
     37 C          24.6587  -26.8192  -39.4007 C.2       5 UNK         0.5017 
     38 O          25.4699  -25.9285  -39.6627 O.2       5 UNK        -0.5012 
     39 N          24.2970  -27.7700  -40.2698 N.am      6 UNK        -0.4439 
     40 CA         24.8600  -27.9608  -41.6051 C.3       6 UNK         0.0297 
     41 CB         23.7114  -27.9028  -42.6270 C.3       6 UNK        -0.2006 
     42 C          25.5929  -29.3104  -41.6634 C.2       6 UNK         0.4892 
     43 O          25.6878  -30.0136  -40.6531 O.2       6 UNK        -0.5089 
     44 N          26.1039  -29.6566  -42.8525 N.am      7 UNK        -0.4243 
     45 CA         26.6678  -30.9737  -43.1507 C.3       7 UNK         0.0196 
     46 CB         27.3570  -30.9397  -44.5248 C.3       7 UNK        -0.2007 
     47 C          25.5584  -32.0372  -43.1132 C.2       7 UNK         0.5020 
     48 O          24.5854  -31.9174  -43.8604 O.2       7 UNK        -0.5147 
     49 N          25.7072  -33.0224  -42.2183 N.am      8 UNK        -0.4734 
     50 CA         24.7745  -34.1108  -41.8831 C.3       8 UNK         0.0238 
     51 CB         24.4801  -35.0092  -43.1013 C.3       8 UNK        -0.1912 
     52 C          23.4698  -33.6521  -41.2019 C.2       8 UNK         0.5038 
     53 O          23.0878  -34.2444  -40.1919 O.2       8 UNK        -0.5046 
     54 N          22.8096  -32.6310  -41.7581 N.am      9 UNK        -0.4200 
     55 CA         21.5619  -32.0439  -41.2547 C.3       9 UNK         0.0839 
     56 C          21.8339  -31.1869  -39.9901 C.2       9 UNK         0.5513 
     57 N          21.4262  -31.6586  -38.8197 N.am      9 UNK        -0.7519 
     58 O          22.4036  -30.1000  -40.0631 O.2       9 UNK        -0.4960 
     59 C59        20.8101  -31.2468  -42.3554 C.3       10 UNK        -0.0876 
     60 S60        20.5160  -32.2515  -43.8530 S.3       10 UNK        -0.2414 
     61 C61        18.7406  -32.6449  -43.7313 C.3       10 UNK         0.0169 
     62 H62        17.5980  -24.1416  -49.4984 H         1 UNK         0.0903 
     63 H63        16.7211  -25.0605  -48.2738 H         1 UNK         0.0903 
     64 H64        17.2685  -23.4203  -47.9211 H         1 UNK         0.0903 
     65 H65        18.0121  -26.6248  -47.3211 H         1 UNK         0.3096 
     66 H66        20.8595  -26.6717  -47.5530 H         1 UNK         0.1121 
     67 H67        20.7348  -28.7400  -46.2156 H         1 UNK         0.0849 
     68 H68        19.1255  -28.3735  -45.6899 H         1 UNK         0.0849 
     69 H69        16.8738  -28.6210  -47.6922 H         1 UNK         0.0865 
     70 H70        17.0377  -30.2672  -48.2412 H         1 UNK         0.0865 
     71 H71        18.7883  -31.5403  -46.2178 H         1 UNK         0.1346 
     72 H72        16.7115  -31.3055  -42.4727 H         1 UNK         0.1412 
     73 H73        15.6006  -28.7168  -45.7015 H         1 UNK         0.1426 
     74 H74        14.0227  -29.2518  -43.7777 H         1 UNK         0.0716 
     75 H75        14.6394  -30.0226  -42.3435 H         1 UNK         0.0716 
     76 H76        16.0643  -29.1252  -40.6856 H         1 UNK         0.0695 
     77 H77        16.1398  -27.4367  -40.2636 H         1 UNK         0.0695 
     78 H78        18.0995  -28.8989  -42.1023 H         1 UNK         0.0983 
     79 H79        17.6484  -26.1154  -41.9215 H         1 UNK         0.3095 
     80 H80        18.7830  -24.7017  -43.0630 H         1 UNK         0.0454 
     81 H81        21.0131  -23.6010  -43.3649 H         1 UNK         0.0851 
     82 H82        21.8151  -25.1026  -42.9101 H         1 UNK         0.0851 
     83 H83        20.8018  -24.2702  -41.7529 H         1 UNK         0.0851 
     84 H84        18.7026  -25.5030  -45.1395 H         1 UNK         0.2976 
     85 H85        19.5137  -26.7205  -39.9078 H         1 UNK         0.3116 
     86 H86        20.5915  -28.9108  -38.2960 H         1 UNK         0.0646 
     87 H87        19.3125  -26.4014  -37.0543 H         1 UNK         0.0847 
     88 H88        18.6971  -28.0457  -36.8905 H         1 UNK         0.0847 
     89 H89        20.2438  -27.6110  -36.1815 H         1 UNK         0.0847 
     90 H90        22.6171  -28.3530  -37.4495 H         1 UNK         0.3040 
     91 H91        24.6704  -27.5564  -37.4206 H         1 UNK         0.1015 
     92 H92        23.4727  -24.7662  -37.8228 H         1 UNK         0.0786 
     93 H93        25.0503  -25.1435  -37.1493 H         1 UNK         0.0786 
     94 H94        23.5999  -25.5969  -36.2725 H         1 UNK         0.0786 
     95 H95        23.6611  -28.5031  -39.9662 H         1 UNK         0.3172 
     96 H96        25.5828  -27.1774  -41.8408 H         1 UNK         0.0595 
     97 H97        23.0098  -28.7249  -42.4888 H         1 UNK         0.0839 
     98 H98        24.0742  -27.9491  -43.6539 H         1 UNK         0.0839 
     99 H99        23.1485  -26.9753  -42.5320 H         1 UNK         0.0839 
    100 H100       25.9727  -29.0356  -43.6375 H         1 UNK         0.2998 
    101 H101       27.4213  -31.2051  -42.3946 H         1 UNK         0.0822 
    102 H102       27.7952  -31.9098  -44.7635 H         1 UNK         0.0787 
    103 H103       26.6561  -30.6940  -45.3240 H         1 UNK         0.0787 
    104 H104       28.1630  -30.2060  -44.5472 H         1 UNK         0.0787 
    105 H105       26.5284  -32.9835  -41.6290 H         1 UNK         0.3055 
    106 H106       25.2987  -34.7269  -41.1501 H         1 UNK         0.1106 
    107 H107       25.3997  -35.3904  -43.5450 H         1 UNK         0.0828 
    108 H108       23.8794  -35.8717  -42.8097 H         1 UNK         0.0828 
    109 H109       23.9262  -34.4812  -43.8781 H         1 UNK         0.0828 
    110 H110       23.2113  -32.2088  -42.5901 H         1 UNK         0.2931 
    111 H111       20.9085  -32.8715  -40.9695 H         1 UNK         0.0412 
    112 H112       20.9789  -32.5599  -38.7575 H         1 UNK         0.3472 
    113 H113       21.5950  -31.1261  -37.9830 H         1 UNK         0.3472 
    114 H114       19.8578  -30.8746  -41.9745 H         1 UNK         0.0970 
    115 H115       21.3785  -30.3638  -42.6500 H         1 UNK         0.0970 
    116 H116       18.5479  -33.5524  -44.3046 H         1 UNK         0.0612 
    117 H117       18.4908  -32.8774  -42.6948 H         1 UNK         0.0612 
@<TRIPOS>BOND
     1    1    2 1    
     2    1   62 1    
     3    1   63 1    
     4    1   64 1    
     5    2    3 2    
     6    2    4 am   BACKBONE|DICT|INTERRES
     7    4    5 1    
     8    4   65 1    
     9    5    6 1    
    10    5   25 1    
    11    5   66 1    
    12    6    7 1    
    13    6   67 1    
    14    6   68 1    
    15    7    8 1    
    16    8    9 1    
    17    8   69 1    
    18    8   70 1    
    19    9   10 ar   
    20    9   14 ar   
    21   10   11 ar   
    22   10   71 1    
    23   11   12 ar   
    24   11   61 1    
    25   12   13 ar   
    26   12   72 1    
    27   13   14 ar   
    28   13   15 1    
    29   14   73 1    
    30   15   16 1    
    31   15   74 1    
    32   15   75 1    
    33   16   17 1    
    34   17   18 1    
    35   17   76 1    
    36   17   77 1    
    37   18   19 1    
    38   18   27 1    
    39   18   78 1    
    40   19   20 am   BACKBONE|DICT|INTERRES
    41   19   79 1    
    42   20   21 2    
    43   20   22 1    
    44   22   23 1    
    45   22   24 1    
    46   22   80 1    
    47   23   81 1    
    48   23   82 1    
    49   23   83 1    
    50   24   25 am   BACKBONE|DICT|INTERRES
    51   24   84 1    
    52   25   26 2    
    53   27   28 2    
    54   27   29 am   BACKBONE|DICT|INTERRES
    55   29   30 1    
    56   29   85 1    
    57   30   31 1    
    58   30   32 1    
    59   30   86 1    
    60   31   87 1    
    61   31   88 1    
    62   31   89 1    
    63   32   33 2    
    64   32   34 am   BACKBONE|DICT|INTERRES
    65   34   35 1    
    66   34   90 1    
    67   35   36 1    
    68   35   37 1    
    69   35   91 1    
    70   36   92 1    
    71   36   93 1    
    72   36   94 1    
    73   37   38 2    
    74   37   39 am   BACKBONE|DICT|INTERRES
    75   39   40 1    
    76   39   95 1    
    77   40   41 1    
    78   40   42 1    
    79   40   96 1    
    80   41   97 1    
    81   41   98 1    
    82   41   99 1    
    83   42   43 2    
    84   42   44 am   BACKBONE|DICT|INTERRES
    85   44   45 1    
    86   44  100 1    
    87   45   46 1    
    88   45   47 1    
    89   45  101 1    
    90   46  102 1    
    91   46  103 1    
    92   46  104 1    
    93   47   48 2    
    94   47   49 am   BACKBONE|DICT|INTERRES
    95   49   50 1    
    96   49  105 1    
    97   50   51 1    
    98   50   52 1    
    99   50  106 1    
   100   51  107 1    
   101   51  108 1    
   102   51  109 1    
   103   52   53 2    
   104   52   54 am   BACKBONE|DICT|INTERRES
   105   54   55 1    
   106   54  110 1    
   107   55   56 1    
   108   55   59 1    
   109   55  111 1    
   110   56   57 am   BACKBONE|DICT|INTERRES
   111   56   58 2    
   112   57  112 1    
   113   57  113 1    
   114   59   60 1    
   115   59  114 1    
   116   59  115 1    
   117   60   61 1    
   118   61  116 1    
   119   61  117 1    
@<TRIPOS>SUBSTRUCTURE
     1 UNK         1 GROUP             0       ****    0 ROOT    
