@<TRIPOS>MOLECULE
3R8
117   119    1
SMALL
USER_CHARGES


@<TRIPOS>ATOM
      1 CA         13.9152  -22.6043  -43.3111 C.3       0 UNK        -0.2013 
      2 C          14.7258  -23.3813  -44.3379 C.2       0 UNK         0.4866 
      3 O          14.7769  -22.9869  -45.5036 O.2       0 UNK        -0.5176 
      4 N          15.3514  -24.4875  -43.9175 N.am      1 UNK        -0.4884 
      5 CA         16.2109  -25.3339  -44.7527 C.3       1 UNK         0.0853 
      6 C6         16.5040  -26.6974  -44.0807 C.3       10 UNK        -0.0849 
      7 S7         14.9881  -27.6606  -43.7453 S.3       10 UNK        -0.2776 
      8 C8         15.1156  -29.0299  -44.9457 C.3       10 UNK         0.0316 
      9 C9         16.3626  -29.8798  -44.7320 C.ar      10 UNK        -0.0863 
     10 C10        16.5770  -30.5262  -43.5096 C.ar      10 UNK        -0.1009 
     11 C11        17.7389  -31.2730  -43.2978 C.ar      10 UNK        -0.0712 
     12 C12        18.6798  -31.3877  -44.3240 C.ar      10 UNK        -0.0894 
     13 C13        18.4796  -30.7466  -45.5488 C.ar      10 UNK        -0.0745 
     14 C14        17.3128  -30.0034  -45.7521 C.ar      10 UNK        -0.0972 
     15 C15        19.5437  -30.8364  -46.6349 C.3       10 UNK         0.0209 
     16 S16        20.3139  -29.2237  -46.9987 S.3       10 UNK        -0.2568 
     17 C17        20.9073  -28.6891  -45.3546 C.3       10 UNK        -0.0983 
     18 CA         21.3754  -27.2126  -45.3444 C.3       3 UNK         0.0876 
     19 N          20.3439  -26.3101  -45.8614 N.am      3 UNK        -0.4424 
     20 C          20.5396  -25.0390  -46.2342 C.2       2 UNK         0.4918 
     21 O          21.6326  -24.4730  -46.1918 O.2       2 UNK        -0.4875 
     22 CA         19.3174  -24.2726  -46.7750 C.3       2 UNK         0.0481 
     23 CB         19.3320  -24.2675  -48.3123 C.3       2 UNK        -0.1831 
     24 N          18.0375  -24.8172  -46.3084 N.am      2 UNK        -0.4498 
     25 C          17.5357  -24.6151  -45.0821 C.2       1 UNK         0.5027 
     26 O          18.0887  -23.9267  -44.2201 O.2       1 UNK        -0.4969 
     27 C          21.7987  -26.7885  -43.9235 C.2       3 UNK         0.5005 
     28 O          20.9360  -26.4551  -43.1061 O.2       3 UNK        -0.5279 
     29 N          23.1091  -26.8174  -43.6497 N.am      4 UNK        -0.4463 
     30 CA         23.6790  -26.5029  -42.3391 C.3       4 UNK         0.0283 
     31 CB         25.1658  -26.1479  -42.5031 C.3       4 UNK        -0.1875 
     32 C          23.5153  -27.6827  -41.3701 C.2       4 UNK         0.4949 
     33 O          23.7323  -28.8292  -41.7657 O.2       4 UNK        -0.5039 
     34 N          23.1826  -27.3784  -40.1102 N.am      5 UNK        -0.4663 
     35 CA         23.1041  -28.3547  -39.0206 C.3       5 UNK         0.0242 
     36 CB         22.4474  -27.6928  -37.7986 C.3       5 UNK        -0.1982 
     37 C          24.4918  -28.9100  -38.6542 C.2       5 UNK         0.5017 
     38 O          25.4988  -28.2260  -38.8529 O.2       5 UNK        -0.5012 
     39 N          24.5169  -30.1476  -38.1440 N.am      6 UNK        -0.4439 
     40 CA         25.6824  -30.9740  -37.7913 C.3       6 UNK         0.0297 
     41 CB         26.6267  -30.2738  -36.7939 C.3       6 UNK        -0.2006 
     42 C          26.4443  -31.5149  -39.0150 C.2       6 UNK         0.4892 
     43 O          26.8584  -32.6745  -38.9925 O.2       6 UNK        -0.5089 
     44 N          26.5781  -30.7011  -40.0716 N.am      7 UNK        -0.4243 
     45 CA         27.0046  -31.1306  -41.4058 C.3       7 UNK         0.0196 
     46 CB         27.3118  -29.8970  -42.2693 C.3       7 UNK        -0.2007 
     47 C          25.9375  -32.0161  -42.0745 C.2       7 UNK         0.5020 
     48 O          26.2809  -33.0191  -42.7007 O.2       7 UNK        -0.5147 
     49 N          24.6664  -31.6446  -41.8903 N.am      8 UNK        -0.4734 
     50 CA         23.4791  -32.4190  -42.2329 C.3       8 UNK         0.0238 
     51 CB         22.7617  -31.7315  -43.4094 C.3       8 UNK        -0.1912 
     52 C          22.5635  -32.5002  -40.9997 C.2       8 UNK         0.5038 
     53 O          22.8315  -31.8582  -39.9793 O.2       8 UNK        -0.5046 
     54 N          21.4862  -33.2834  -41.1290 N.am      9 UNK        -0.4200 
     55 CA         20.4272  -33.4816  -40.1208 C.3       9 UNK         0.0839 
     56 C          20.8456  -34.3464  -38.8934 C.2       9 UNK         0.5513 
     57 N          21.9800  -35.0352  -38.9226 N.am      9 UNK        -0.7519 
     58 O          20.1150  -34.4218  -37.9085 O.2       9 UNK        -0.4960 
     59 C59        19.6949  -32.1705  -39.6915 C.3       10 UNK        -0.0876 
     60 S60        19.2934  -31.0211  -41.0528 S.3       10 UNK        -0.2414 
     61 C61        18.0063  -31.9340  -41.9559 C.3       10 UNK         0.0169 
     62 H62        14.3038  -21.5908  -43.2159 H         1 UNK         0.0903 
     63 H63        12.8734  -22.5423  -43.6244 H         1 UNK         0.0903 
     64 H64        13.9459  -23.0730  -42.3276 H         1 UNK         0.0903 
     65 H65        15.2811  -24.7637  -42.9485 H         1 UNK         0.3096 
     66 H66        15.6806  -25.5196  -45.6897 H         1 UNK         0.1121 
     67 H67        17.0261  -26.5527  -43.1326 H         1 UNK         0.0849 
     68 H68        17.1801  -27.2888  -44.6998 H         1 UNK         0.0849 
     69 H69        14.2341  -29.6656  -44.8519 H         1 UNK         0.0865 
     70 H70        15.0897  -28.6184  -45.9560 H         1 UNK         0.0865 
     71 H71        15.8500  -30.4239  -42.7152 H         1 UNK         0.1346 
     72 H72        19.5836  -31.9551  -44.1530 H         1 UNK         0.1412 
     73 H73        17.1620  -29.5015  -46.6983 H         1 UNK         0.1426 
     74 H74        19.0916  -31.2266  -47.5476 H         1 UNK         0.0716 
     75 H75        20.3272  -31.5423  -46.3546 H         1 UNK         0.0716 
     76 H76        21.7217  -29.3506  -45.0551 H         1 UNK         0.0695 
     77 H77        20.1092  -28.8299  -44.6233 H         1 UNK         0.0695 
     78 H78        22.2423  -27.1271  -46.0038 H         1 UNK         0.0983 
     79 H79        19.4158  -26.6961  -45.9272 H         1 UNK         0.3095 
     80 H80        19.4001  -23.2380  -46.4348 H         1 UNK         0.0454 
     81 H81        18.5132  -23.6718  -48.7159 H         1 UNK         0.0851 
     82 H82        19.2506  -25.2750  -48.7222 H         1 UNK         0.0851 
     83 H83        20.2598  -23.8368  -48.6917 H         1 UNK         0.0851 
     84 H84        17.5202  -25.3822  -46.9673 H         1 UNK         0.2976 
     85 H85        23.7539  -27.1494  -44.3524 H         1 UNK         0.3116 
     86 H86        23.1625  -25.6310  -41.9311 H         1 UNK         0.0646 
     87 H87        25.7334  -26.9701  -42.9398 H         1 UNK         0.0847 
     88 H88        25.6204  -25.9171  -41.5384 H         1 UNK         0.0847 
     89 H89        25.2976  -25.2732  -43.1402 H         1 UNK         0.0847 
     90 H90        23.0618  -26.4083  -39.8578 H         1 UNK         0.3040 
     91 H91        22.4736  -29.1822  -39.3561 H         1 UNK         0.1015 
     92 H92        23.0373  -26.8530  -37.4288 H         1 UNK         0.0786 
     93 H93        22.3423  -28.4034  -36.9775 H         1 UNK         0.0786 
     94 H94        21.4486  -27.3250  -38.0351 H         1 UNK         0.0786 
     95 H95        23.6374  -30.6504  -38.1277 H         1 UNK         0.3172 
     96 H96        25.2654  -31.8438  -37.2809 H         1 UNK         0.0595 
     97 H97        27.1465  -29.4267  -37.2420 H         1 UNK         0.0839 
     98 H98        27.3917  -30.9653  -36.4386 H         1 UNK         0.0839 
     99 H99        26.0850  -29.9126  -35.9198 H         1 UNK         0.0839 
    100 H100       26.2391  -29.7501  -39.9729 H         1 UNK         0.2998 
    101 H101       27.9190  -31.7191  -41.3033 H         1 UNK         0.0822 
    102 H102       28.0960  -29.2849  -41.8234 H         1 UNK         0.0787 
    103 H103       27.6545  -30.1924  -43.2619 H         1 UNK         0.0787 
    104 H104       26.4302  -29.2692  -42.4021 H         1 UNK         0.0787 
    105 H105       24.4719  -30.7900  -41.3789 H         1 UNK         0.3055 
    106 H106       23.7599  -33.4357  -42.5168 H         1 UNK         0.1106 
    107 H107       21.9376  -32.3400  -43.7809 H         1 UNK         0.0828 
    108 H108       22.3490  -30.7649  -43.1166 H         1 UNK         0.0828 
    109 H109       23.4399  -31.5650  -44.2464 H         1 UNK         0.0828 
    110 H110       21.3564  -33.7899  -41.9922 H         1 UNK         0.2931 
    111 H111       19.6875  -34.0996  -40.6294 H         1 UNK         0.0412 
    112 H112       22.5860  -34.9895  -39.7256 H         1 UNK         0.3472 
    113 H113       22.2354  -35.6004  -38.1278 H         1 UNK         0.3472 
    114 H114       20.3095  -31.6192  -38.9777 H         1 UNK         0.0970 
    115 H115       18.7705  -32.4096  -39.1626 H         1 UNK         0.0970 
    116 H116       17.0995  -31.9782  -41.3507 H         1 UNK         0.0612 
    117 H117       18.3237  -32.9629  -42.1251 H         1 UNK         0.0612 
@<TRIPOS>BOND
     1    1    2 1    
     2    1   62 1    
     3    1   63 1    
     4    1   64 1    
     5    2    3 2    
     6    2    4 am   BACKBONE|DICT|INTERRES
     7    4    5 1    
     8    4   65 1    
     9    5    6 1    
    10    5   25 1    
    11    5   66 1    
    12    6    7 1    
    13    6   67 1    
    14    6   68 1    
    15    7    8 1    
    16    8    9 1    
    17    8   69 1    
    18    8   70 1    
    19    9   10 ar   
    20    9   14 ar   
    21   10   11 ar   
    22   10   71 1    
    23   11   12 ar   
    24   11   61 1    
    25   12   13 ar   
    26   12   72 1    
    27   13   14 ar   
    28   13   15 1    
    29   14   73 1    
    30   15   16 1    
    31   15   74 1    
    32   15   75 1    
    33   16   17 1    
    34   17   18 1    
    35   17   76 1    
    36   17   77 1    
    37   18   19 1    
    38   18   27 1    
    39   18   78 1    
    40   19   20 am   BACKBONE|DICT|INTERRES
    41   19   79 1    
    42   20   21 2    
    43   20   22 1    
    44   22   23 1    
    45   22   24 1    
    46   22   80 1    
    47   23   81 1    
    48   23   82 1    
    49   23   83 1    
    50   24   25 am   BACKBONE|DICT|INTERRES
    51   24   84 1    
    52   25   26 2    
    53   27   28 2    
    54   27   29 am   BACKBONE|DICT|INTERRES
    55   29   30 1    
    56   29   85 1    
    57   30   31 1    
    58   30   32 1    
    59   30   86 1    
    60   31   87 1    
    61   31   88 1    
    62   31   89 1    
    63   32   33 2    
    64   32   34 am   BACKBONE|DICT|INTERRES
    65   34   35 1    
    66   34   90 1    
    67   35   36 1    
    68   35   37 1    
    69   35   91 1    
    70   36   92 1    
    71   36   93 1    
    72   36   94 1    
    73   37   38 2    
    74   37   39 am   BACKBONE|DICT|INTERRES
    75   39   40 1    
    76   39   95 1    
    77   40   41 1    
    78   40   42 1    
    79   40   96 1    
    80   41   97 1    
    81   41   98 1    
    82   41   99 1    
    83   42   43 2    
    84   42   44 am   BACKBONE|DICT|INTERRES
    85   44   45 1    
    86   44  100 1    
    87   45   46 1    
    88   45   47 1    
    89   45  101 1    
    90   46  102 1    
    91   46  103 1    
    92   46  104 1    
    93   47   48 2    
    94   47   49 am   BACKBONE|DICT|INTERRES
    95   49   50 1    
    96   49  105 1    
    97   50   51 1    
    98   50   52 1    
    99   50  106 1    
   100   51  107 1    
   101   51  108 1    
   102   51  109 1    
   103   52   53 2    
   104   52   54 am   BACKBONE|DICT|INTERRES
   105   54   55 1    
   106   54  110 1    
   107   55   56 1    
   108   55   59 1    
   109   55  111 1    
   110   56   57 am   BACKBONE|DICT|INTERRES
   111   56   58 2    
   112   57  112 1    
   113   57  113 1    
   114   59   60 1    
   115   59  114 1    
   116   59  115 1    
   117   60   61 1    
   118   61  116 1    
   119   61  117 1    
@<TRIPOS>SUBSTRUCTURE
     1 UNK         1 GROUP             0       ****    0 ROOT    
