@<TRIPOS>MOLECULE
3R8
117   119    1
SMALL
USER_CHARGES


@<TRIPOS>ATOM
      1 CA         17.8013  -22.5569  -40.7884 C.3       0 UNK        -0.2013 
      2 C          17.4371  -23.0839  -42.1679 C.2       0 UNK         0.4866 
      3 O          17.2850  -22.2980  -43.1030 O.2       0 UNK        -0.5176 
      4 N          17.2938  -24.4089  -42.3012 N.am      1 UNK        -0.4884 
      5 CA         16.9786  -25.1032  -43.5571 C.3       1 UNK         0.0853 
      6 C6         16.4525  -26.5384  -43.3101 C.3       10 UNK        -0.0849 
      7 S7         17.4641  -27.5350  -42.1555 S.3       10 UNK        -0.2776 
      8 C8         16.5833  -29.1312  -42.2009 C.3       10 UNK         0.0316 
      9 C9         17.2306  -30.0837  -43.1938 C.ar      10 UNK        -0.0863 
     10 C10        18.0576  -31.1183  -42.7452 C.ar      10 UNK        -0.1009 
     11 C11        18.7034  -31.9574  -43.6583 C.ar      10 UNK        -0.0712 
     12 C12        18.5233  -31.7517  -45.0291 C.ar      10 UNK        -0.0894 
     13 C13        17.7051  -30.7145  -45.4868 C.ar      10 UNK        -0.0745 
     14 C14        17.0340  -29.9095  -44.5655 C.ar      10 UNK        -0.0972 
     15 C15        17.6079  -30.4024  -46.9723 C.3       10 UNK         0.0209 
     16 S16        18.4513  -28.8332  -47.3737 S.3       10 UNK        -0.2568 
     17 C17        20.1459  -29.1909  -46.8013 C.3       10 UNK        -0.0983 
     18 CA         21.0701  -27.9517  -46.7971 C.3       3 UNK         0.0876 
     19 N          20.5837  -26.8846  -45.9043 N.am      3 UNK        -0.4424 
     20 C          21.0313  -25.6212  -45.9441 C.2       2 UNK         0.4918 
     21 O          21.8003  -25.2121  -46.8157 O.2       2 UNK        -0.4875 
     22 CA         20.6148  -24.6660  -44.8046 C.3       2 UNK         0.0481 
     23 CB         20.5703  -23.1933  -45.2663 C.3       2 UNK        -0.1831 
     24 N          19.3806  -25.0087  -44.0852 N.am      2 UNK        -0.4498 
     25 C          18.1349  -25.0595  -44.5826 C.2       1 UNK         0.5027 
     26 O          17.8720  -25.0177  -45.7850 O.2       1 UNK        -0.4969 
     27 C          22.5075  -28.3907  -46.4325 C.2       3 UNK         0.5005 
     28 O          23.2249  -28.9106  -47.2889 O.2       3 UNK        -0.5279 
     29 N          22.8924  -28.1774  -45.1703 N.am      4 UNK        -0.4463 
     30 CA         24.1968  -28.4469  -44.5819 C.3       4 UNK         0.0283 
     31 CB         24.2305  -29.8940  -44.0526 C.3       4 UNK        -0.1875 
     32 C          24.4270  -27.4123  -43.4694 C.2       4 UNK         0.4949 
     33 O          23.5588  -26.5685  -43.2273 O.2       4 UNK        -0.5039 
     34 N          25.5874  -27.4931  -42.8047 N.am      5 UNK        -0.4663 
     35 CA         26.0015  -26.5913  -41.7193 C.3       5 UNK         0.0242 
     36 CB         27.4692  -26.8795  -41.3632 C.3       5 UNK        -0.1982 
     37 C          25.1205  -26.6539  -40.4548 C.2       5 UNK         0.5017 
     38 O          25.1315  -25.7070  -39.6673 O.2       5 UNK        -0.5012 
     39 N          24.3760  -27.7505  -40.2867 N.am      6 UNK        -0.4439 
     40 CA         23.3734  -27.9666  -39.2521 C.3       6 UNK         0.0297 
     41 CB         24.0380  -28.5582  -37.9958 C.3       6 UNK        -0.2006 
     42 C          22.3171  -28.9202  -39.8206 C.2       6 UNK         0.4892 
     43 O          22.6013  -29.6350  -40.7845 O.2       6 UNK        -0.5089 
     44 N          21.1334  -28.9421  -39.1933 N.am      7 UNK        -0.4243 
     45 CA         20.0296  -29.8469  -39.5400 C.3       7 UNK         0.0196 
     46 CB         18.7448  -29.3709  -38.8434 C.3       7 UNK        -0.2007 
     47 C          20.3137  -31.3231  -39.2001 C.2       7 UNK         0.5020 
     48 O          19.6649  -32.2102  -39.7539 O.2       7 UNK        -0.5147 
     49 N          21.2818  -31.5733  -38.3093 N.am      8 UNK        -0.4734 
     50 CA         21.8135  -32.8986  -37.9960 C.3       8 UNK         0.0238 
     51 CB         22.4452  -32.8620  -36.5916 C.3       8 UNK        -0.1912 
     52 C          22.8134  -33.3340  -39.0837 C.2       8 UNK         0.5038 
     53 O          24.0228  -33.3244  -38.8452 O.2       8 UNK        -0.5046 
     54 N          22.2877  -33.6678  -40.2693 N.am      9 UNK        -0.4200 
     55 CA         23.0613  -34.0714  -41.4566 C.3       9 UNK         0.0839 
     56 C          23.8453  -35.4097  -41.3128 C.2       9 UNK         0.5513 
     57 N          23.5205  -36.2737  -40.3582 N.am      9 UNK        -0.7519 
     58 O          24.7643  -35.6673  -42.0859 O.2       9 UNK        -0.4960 
     59 C59        22.1895  -34.1037  -42.7397 C.3       10 UNK        -0.0876 
     60 S60        21.3472  -32.5242  -43.0986 S.3       10 UNK        -0.2414 
     61 C61        19.6138  -33.0727  -43.1708 C.3       10 UNK         0.0169 
     62 H62        18.7469  -22.0170  -40.8311 H         1 UNK         0.0903 
     63 H63        17.0326  -21.8707  -40.4342 H         1 UNK         0.0903 
     64 H64        17.9015  -23.3595  -40.0580 H         1 UNK         0.0903 
     65 H65        17.4208  -25.0138  -41.5008 H         1 UNK         0.3096 
     66 H66        16.1621  -24.5479  -44.0254 H         1 UNK         0.1121 
     67 H67        15.4473  -26.4759  -42.8899 H         1 UNK         0.0849 
     68 H68        16.3375  -27.0621  -44.2581 H         1 UNK         0.0849 
     69 H69        16.5943  -29.5648  -41.2001 H         1 UNK         0.0865 
     70 H70        15.5323  -28.9820  -42.4525 H         1 UNK         0.0865 
     71 H71        18.2122  -31.2636  -41.6857 H         1 UNK         0.1346 
     72 H72        19.0511  -32.3760  -45.7372 H         1 UNK         0.1412 
     73 H73        16.4009  -29.1145  -44.9287 H         1 UNK         0.1426 
     74 H74        16.5586  -30.3304  -47.2621 H         1 UNK         0.0716 
     75 H75        18.0408  -31.2063  -47.5697 H         1 UNK         0.0716 
     76 H76        20.5503  -29.9728  -47.4476 H         1 UNK         0.0695 
     77 H77        20.1088  -29.6121  -45.7960 H         1 UNK         0.0695 
     78 H78        21.1063  -27.5544  -47.8140 H         1 UNK         0.0983 
     79 H79        19.9184  -27.1498  -45.1928 H         1 UNK         0.3095 
     80 H80        21.4102  -24.7436  -44.0620 H         1 UNK         0.0454 
     81 H81        21.5397  -22.8679  -45.6458 H         1 UNK         0.0851 
     82 H82        20.3084  -22.5266  -44.4446 H         1 UNK         0.0851 
     83 H83        19.8420  -23.0430  -46.0637 H         1 UNK         0.0851 
     84 H84        19.4710  -25.0883  -43.0818 H         1 UNK         0.2976 
     85 H85        22.2726  -27.6663  -44.5541 H         1 UNK         0.3116 
     86 H86        24.9741  -28.3096  -45.3362 H         1 UNK         0.0646 
     87 H87        25.2006  -30.1445  -43.6230 H         1 UNK         0.0847 
     88 H88        24.0413  -30.6113  -44.8514 H         1 UNK         0.0847 
     89 H89        23.4775  -30.0576  -43.2809 H         1 UNK         0.0847 
     90 H90        26.2475  -28.2114  -43.0674 H         1 UNK         0.3040 
     91 H91        25.9357  -25.5688  -42.0979 H         1 UNK         0.1015 
     92 H92        27.8219  -26.2048  -40.5816 H         1 UNK         0.0786 
     93 H93        28.1225  -26.7414  -42.2248 H         1 UNK         0.0786 
     94 H94        27.6027  -27.8985  -40.9979 H         1 UNK         0.0786 
     95 H95        24.3757  -28.4606  -41.0093 H         1 UNK         0.3172 
     96 H96        22.8905  -27.0182  -39.0076 H         1 UNK         0.0595 
     97 H97        24.5032  -29.5229  -38.2032 H         1 UNK         0.0839 
     98 H98        23.3106  -28.7097  -37.1978 H         1 UNK         0.0839 
     99 H99        24.8089  -27.8939  -37.6049 H         1 UNK         0.0839 
    100 H100       20.9810  -28.3195  -38.4125 H         1 UNK         0.2998 
    101 H101       19.8754  -29.7891  -40.6200 H         1 UNK         0.0822 
    102 H102       18.4735  -28.3631  -39.1586 H         1 UNK         0.0787 
    103 H103       18.8494  -29.3698  -37.7578 H         1 UNK         0.0787 
    104 H104       17.9044  -30.0217  -39.0883 H         1 UNK         0.0787 
    105 H105       21.7759  -30.7855  -37.9176 H         1 UNK         0.3055 
    106 H106       20.9977  -33.6253  -37.9786 H         1 UNK         0.1106 
    107 H107       23.2573  -32.1363  -36.5282 H         1 UNK         0.0828 
    108 H108       21.7069  -32.6051  -35.8317 H         1 UNK         0.0828 
    109 H109       22.8572  -33.8361  -36.3248 H         1 UNK         0.0828 
    110 H110       21.2885  -33.5650  -40.3955 H         1 UNK         0.2931 
    111 H111       23.8180  -33.2977  -41.6031 H         1 UNK         0.0412 
    112 H112       22.7662  -36.0737  -39.7212 H         1 UNK         0.3472 
    113 H113       24.0375  -37.1352  -40.2748 H         1 UNK         0.3472 
    114 H114       22.8062  -34.3405  -43.6091 H         1 UNK         0.0970 
    115 H115       21.4538  -34.9071  -42.6704 H         1 UNK         0.0970 
    116 H116       19.5313  -33.9299  -43.8408 H         1 UNK         0.0612 
    117 H117       19.2996  -33.4179  -42.1848 H         1 UNK         0.0612 
@<TRIPOS>BOND
     1    1    2 1    
     2    1   62 1    
     3    1   63 1    
     4    1   64 1    
     5    2    3 2    
     6    2    4 am   BACKBONE|DICT|INTERRES
     7    4    5 1    
     8    4   65 1    
     9    5    6 1    
    10    5   25 1    
    11    5   66 1    
    12    6    7 1    
    13    6   67 1    
    14    6   68 1    
    15    7    8 1    
    16    8    9 1    
    17    8   69 1    
    18    8   70 1    
    19    9   10 ar   
    20    9   14 ar   
    21   10   11 ar   
    22   10   71 1    
    23   11   12 ar   
    24   11   61 1    
    25   12   13 ar   
    26   12   72 1    
    27   13   14 ar   
    28   13   15 1    
    29   14   73 1    
    30   15   16 1    
    31   15   74 1    
    32   15   75 1    
    33   16   17 1    
    34   17   18 1    
    35   17   76 1    
    36   17   77 1    
    37   18   19 1    
    38   18   27 1    
    39   18   78 1    
    40   19   20 am   BACKBONE|DICT|INTERRES
    41   19   79 1    
    42   20   21 2    
    43   20   22 1    
    44   22   23 1    
    45   22   24 1    
    46   22   80 1    
    47   23   81 1    
    48   23   82 1    
    49   23   83 1    
    50   24   25 am   BACKBONE|DICT|INTERRES
    51   24   84 1    
    52   25   26 2    
    53   27   28 2    
    54   27   29 am   BACKBONE|DICT|INTERRES
    55   29   30 1    
    56   29   85 1    
    57   30   31 1    
    58   30   32 1    
    59   30   86 1    
    60   31   87 1    
    61   31   88 1    
    62   31   89 1    
    63   32   33 2    
    64   32   34 am   BACKBONE|DICT|INTERRES
    65   34   35 1    
    66   34   90 1    
    67   35   36 1    
    68   35   37 1    
    69   35   91 1    
    70   36   92 1    
    71   36   93 1    
    72   36   94 1    
    73   37   38 2    
    74   37   39 am   BACKBONE|DICT|INTERRES
    75   39   40 1    
    76   39   95 1    
    77   40   41 1    
    78   40   42 1    
    79   40   96 1    
    80   41   97 1    
    81   41   98 1    
    82   41   99 1    
    83   42   43 2    
    84   42   44 am   BACKBONE|DICT|INTERRES
    85   44   45 1    
    86   44  100 1    
    87   45   46 1    
    88   45   47 1    
    89   45  101 1    
    90   46  102 1    
    91   46  103 1    
    92   46  104 1    
    93   47   48 2    
    94   47   49 am   BACKBONE|DICT|INTERRES
    95   49   50 1    
    96   49  105 1    
    97   50   51 1    
    98   50   52 1    
    99   50  106 1    
   100   51  107 1    
   101   51  108 1    
   102   51  109 1    
   103   52   53 2    
   104   52   54 am   BACKBONE|DICT|INTERRES
   105   54   55 1    
   106   54  110 1    
   107   55   56 1    
   108   55   59 1    
   109   55  111 1    
   110   56   57 am   BACKBONE|DICT|INTERRES
   111   56   58 2    
   112   57  112 1    
   113   57  113 1    
   114   59   60 1    
   115   59  114 1    
   116   59  115 1    
   117   60   61 1    
   118   61  116 1    
   119   61  117 1    
@<TRIPOS>SUBSTRUCTURE
     1 UNK         1 GROUP             0       ****    0 ROOT    
