@<TRIPOS>MOLECULE
3R8
117   119    1
SMALL
USER_CHARGES


@<TRIPOS>ATOM
      1 CA         17.6913  -26.5510  -41.5156 C.3       0 UNK        -0.2013 
      2 C          17.2053  -26.1830  -42.9062 C.2       0 UNK         0.4866 
      3 O          16.8020  -25.0423  -43.1389 O.2       0 UNK        -0.5176 
      4 N          17.2551  -27.1351  -43.8459 N.am      1 UNK        -0.4884 
      5 CA         16.8443  -26.9717  -45.2482 C.3       1 UNK         0.0853 
      6 C6         16.3727  -28.3064  -45.8967 C.3       10 UNK        -0.0849 
      7 S7         15.2979  -29.3159  -44.8135 S.3       10 UNK        -0.2776 
      8 C8         16.3210  -30.8044  -44.5362 C.3       10 UNK         0.0316 
      9 C9         17.6948  -30.4831  -43.9572 C.ar      10 UNK        -0.0863 
     10 C10        17.8381  -30.1715  -42.6019 C.ar      10 UNK        -0.1009 
     11 C11        19.0999  -29.8838  -42.0700 C.ar      10 UNK        -0.0712 
     12 C12        20.2193  -29.8988  -42.9073 C.ar      10 UNK        -0.0894 
     13 C13        20.0936  -30.2320  -44.2585 C.ar      10 UNK        -0.0745 
     14 C14        18.8288  -30.5226  -44.7758 C.ar      10 UNK        -0.0972 
     15 C15        21.3237  -30.3341  -45.1513 C.3       10 UNK         0.0209 
     16 S16        21.6468  -28.7960  -46.0705 S.3       10 UNK        -0.2568 
     17 C17        22.5515  -27.8434  -44.8097 C.3       10 UNK        -0.0983 
     18 CA         22.9920  -26.4267  -45.2863 C.3       3 UNK         0.0876 
     19 N          21.8670  -25.6101  -45.7819 N.am      3 UNK        -0.4424 
     20 C          20.7820  -25.2387  -45.0861 C.2       2 UNK         0.4918 
     21 O          20.6406  -25.4592  -43.8805 O.2       2 UNK        -0.4875 
     22 CA         19.6801  -24.4535  -45.8250 C.3       2 UNK         0.0481 
     23 CB         19.9482  -24.1870  -47.3248 C.3       2 UNK        -0.1831 
     24 N          18.3899  -25.1043  -45.5883 N.am      2 UNK        -0.4498 
     25 C          17.9909  -26.3026  -46.0405 C.2       1 UNK         0.5027 
     26 O          18.5256  -26.8958  -46.9785 O.2       1 UNK        -0.4969 
     27 C          23.8260  -25.7367  -44.1786 C.2       3 UNK         0.5005 
     28 O          24.6548  -26.3994  -43.5546 O.2       3 UNK        -0.5279 
     29 N          23.5452  -24.4562  -43.8802 N.am      4 UNK        -0.4463 
     30 CA         23.9512  -23.7247  -42.6685 C.3       4 UNK         0.0283 
     31 CB         25.4661  -23.4300  -42.6894 C.3       4 UNK        -0.1875 
     32 C          23.5033  -24.4249  -41.3619 C.2       4 UNK         0.4949 
     33 O          24.1372  -24.2395  -40.3227 O.2       4 UNK        -0.5039 
     34 N          22.4432  -25.2470  -41.4552 N.am      5 UNK        -0.4663 
     35 CA         21.9377  -26.1884  -40.4487 C.3       5 UNK         0.0242 
     36 CB         21.3022  -25.4309  -39.2644 C.3       5 UNK        -0.1982 
     37 C          22.9605  -27.2587  -39.9984 C.2       5 UNK         0.5017 
     38 O          22.8087  -27.8123  -38.9080 O.2       5 UNK        -0.5012 
     39 N          23.9779  -27.5361  -40.8273 N.am      6 UNK        -0.4439 
     40 CA         25.0028  -28.5528  -40.5829 C.3       6 UNK         0.0297 
     41 CB         26.3035  -28.1178  -41.2823 C.3       6 UNK        -0.2006 
     42 C          24.5528  -29.9400  -41.0757 C.2       6 UNK         0.4892 
     43 O          23.5273  -30.0574  -41.7485 O.2       6 UNK        -0.5089 
     44 N          25.3687  -30.9549  -40.7565 N.am      7 UNK        -0.4243 
     45 CA         25.1880  -32.3815  -41.0568 C.3       7 UNK         0.0196 
     46 CB         25.0096  -32.6319  -42.5737 C.3       7 UNK        -0.2007 
     47 C          24.0942  -33.0347  -40.1882 C.2       7 UNK         0.5020 
     48 O          23.7207  -32.4890  -39.1480 O.2       7 UNK        -0.5147 
     49 N          23.6531  -34.2342  -40.5901 N.am      8 UNK        -0.4734 
     50 CA         22.7217  -35.0788  -39.8330 C.3       8 UNK         0.0238 
     51 CB         22.8568  -36.5309  -40.3226 C.3       8 UNK        -0.1912 
     52 C          21.2520  -34.6269  -39.9021 C.2       8 UNK         0.5038 
     53 O          20.4634  -35.0548  -39.0581 O.2       8 UNK        -0.5046 
     54 N          20.9078  -33.8029  -40.9017 N.am      9 UNK        -0.4200 
     55 CA         19.5553  -33.2762  -41.1678 C.3       9 UNK         0.0839 
     56 C          18.5139  -34.3493  -41.6111 C.2       9 UNK         0.5513 
     57 N          18.9326  -35.5195  -42.0792 N.am      9 UNK        -0.7519 
     58 O          17.3091  -34.1145  -41.5606 O.2       9 UNK        -0.4960 
     59 C59        19.0226  -32.3536  -40.0303 C.3       10 UNK        -0.0876 
     60 S60        20.1247  -30.9336  -39.7084 S.3       10 UNK        -0.2414 
     61 C61        19.2624  -29.5904  -40.5844 C.3       10 UNK         0.0169 
     62 H62        17.4944  -25.7442  -40.8100 H         1 UNK         0.0903 
     63 H63        17.1853  -27.4460  -41.1559 H         1 UNK         0.0903 
     64 H64        18.7649  -26.7316  -41.5329 H         1 UNK         0.0903 
     65 H65        17.6143  -28.0525  -43.6134 H         1 UNK         0.3096 
     66 H66        15.9942  -26.2861  -45.2782 H         1 UNK         0.1121 
     67 H67        15.8188  -28.0899  -46.8117 H         1 UNK         0.0849 
     68 H68        17.2181  -28.9146  -46.2161 H         1 UNK         0.0849 
     69 H69        15.7918  -31.4756  -43.8580 H         1 UNK         0.0865 
     70 H70        16.4201  -31.3471  -45.4776 H         1 UNK         0.0865 
     71 H71        16.9662  -30.1636  -41.9616 H         1 UNK         0.1346 
     72 H72        21.1942  -29.6861  -42.4942 H         1 UNK         0.1412 
     73 H73        18.7311  -30.7836  -45.8209 H         1 UNK         0.1426 
     74 H74        21.1845  -31.1437  -45.8692 H         1 UNK         0.0716 
     75 H75        22.2011  -30.6052  -44.5612 H         1 UNK         0.0716 
     76 H76        23.4202  -28.4394  -44.5226 H         1 UNK         0.0695 
     77 H77        21.9282  -27.7730  -43.9170 H         1 UNK         0.0695 
     78 H78        23.6721  -26.5547  -46.1298 H         1 UNK         0.0983 
     79 H79        21.9011  -25.3808  -46.7649 H         1 UNK         0.3095 
     80 H80        19.6182  -23.4831  -45.3308 H         1 UNK         0.0454 
     81 H81        20.1104  -25.1019  -47.8950 H         1 UNK         0.0851 
     82 H82        20.8273  -23.5557  -47.4590 H         1 UNK         0.0851 
     83 H83        19.1100  -23.6614  -47.7821 H         1 UNK         0.0851 
     84 H84        17.8870  -24.7612  -44.7742 H         1 UNK         0.2976 
     85 H85        22.8518  -23.9958  -44.4528 H         1 UNK         0.3116 
     86 H86        23.4258  -22.7691  -42.6956 H         1 UNK         0.0646 
     87 H87        26.0576  -24.3399  -42.5835 H         1 UNK         0.0847 
     88 H88        25.7469  -22.7652  -41.8717 H         1 UNK         0.0847 
     89 H89        25.7635  -22.9424  -43.6175 H         1 UNK         0.0847 
     90 H90        21.9674  -25.2944  -42.3520 H         1 UNK         0.3040 
     91 H91        21.1430  -26.7433  -40.9476 H         1 UNK         0.1015 
     92 H92        20.5613  -24.7088  -39.6078 H         1 UNK         0.0786 
     93 H93        22.0506  -24.8939  -38.6809 H         1 UNK         0.0786 
     94 H94        20.7919  -26.1170  -38.5872 H         1 UNK         0.0786 
     95 H95        24.0309  -27.0622  -41.7235 H         1 UNK         0.3172 
     96 H96        25.1946  -28.6160  -39.5097 H         1 UNK         0.0595 
     97 H97        26.2125  -28.1651  -42.3681 H         1 UNK         0.0839 
     98 H98        27.1395  -28.7586  -41.0007 H         1 UNK         0.0839 
     99 H99        26.5777  -27.0969  -41.0149 H         1 UNK         0.0839 
    100 H100       26.1694  -30.7432  -40.1778 H         1 UNK         0.2998 
    101 H101       26.1234  -32.8580  -40.7593 H         1 UNK         0.0822 
    102 H102       25.7376  -32.0659  -43.1551 H         1 UNK         0.0787 
    103 H103       25.1558  -33.6827  -42.8250 H         1 UNK         0.0787 
    104 H104       24.0156  -32.3477  -42.9212 H         1 UNK         0.0787 
    105 H105       24.0211  -34.6202  -41.4481 H         1 UNK         0.3055 
    106 H106       23.0110  -35.0483  -38.7797 H         1 UNK         0.1106 
    107 H107       22.1979  -37.1959  -39.7619 H         1 UNK         0.0828 
    108 H108       22.5970  -36.6295  -41.3772 H         1 UNK         0.0828 
    109 H109       23.8732  -36.9020  -40.1900 H         1 UNK         0.0828 
    110 H110       21.6303  -33.5016  -41.5380 H         1 UNK         0.2931 
    111 H111       19.6734  -32.6540  -42.0545 H         1 UNK         0.0412 
    112 H112       19.9167  -35.7244  -42.1398 H         1 UNK         0.3472 
    113 H113       18.2540  -36.2047  -42.3729 H         1 UNK         0.3472 
    114 H114       18.9027  -32.9158  -39.1035 H         1 UNK         0.0970 
    115 H115       18.0286  -31.9736  -40.2710 H         1 UNK         0.0970 
    116 H116       18.2943  -29.4226  -40.1104 H         1 UNK         0.0612 
    117 H117       19.8338  -28.6718  -40.4548 H         1 UNK         0.0612 
@<TRIPOS>BOND
     1    1    2 1    
     2    1   62 1    
     3    1   63 1    
     4    1   64 1    
     5    2    3 2    
     6    2    4 am   BACKBONE|DICT|INTERRES
     7    4    5 1    
     8    4   65 1    
     9    5    6 1    
    10    5   25 1    
    11    5   66 1    
    12    6    7 1    
    13    6   67 1    
    14    6   68 1    
    15    7    8 1    
    16    8    9 1    
    17    8   69 1    
    18    8   70 1    
    19    9   10 ar   
    20    9   14 ar   
    21   10   11 ar   
    22   10   71 1    
    23   11   12 ar   
    24   11   61 1    
    25   12   13 ar   
    26   12   72 1    
    27   13   14 ar   
    28   13   15 1    
    29   14   73 1    
    30   15   16 1    
    31   15   74 1    
    32   15   75 1    
    33   16   17 1    
    34   17   18 1    
    35   17   76 1    
    36   17   77 1    
    37   18   19 1    
    38   18   27 1    
    39   18   78 1    
    40   19   20 am   BACKBONE|DICT|INTERRES
    41   19   79 1    
    42   20   21 2    
    43   20   22 1    
    44   22   23 1    
    45   22   24 1    
    46   22   80 1    
    47   23   81 1    
    48   23   82 1    
    49   23   83 1    
    50   24   25 am   BACKBONE|DICT|INTERRES
    51   24   84 1    
    52   25   26 2    
    53   27   28 2    
    54   27   29 am   BACKBONE|DICT|INTERRES
    55   29   30 1    
    56   29   85 1    
    57   30   31 1    
    58   30   32 1    
    59   30   86 1    
    60   31   87 1    
    61   31   88 1    
    62   31   89 1    
    63   32   33 2    
    64   32   34 am   BACKBONE|DICT|INTERRES
    65   34   35 1    
    66   34   90 1    
    67   35   36 1    
    68   35   37 1    
    69   35   91 1    
    70   36   92 1    
    71   36   93 1    
    72   36   94 1    
    73   37   38 2    
    74   37   39 am   BACKBONE|DICT|INTERRES
    75   39   40 1    
    76   39   95 1    
    77   40   41 1    
    78   40   42 1    
    79   40   96 1    
    80   41   97 1    
    81   41   98 1    
    82   41   99 1    
    83   42   43 2    
    84   42   44 am   BACKBONE|DICT|INTERRES
    85   44   45 1    
    86   44  100 1    
    87   45   46 1    
    88   45   47 1    
    89   45  101 1    
    90   46  102 1    
    91   46  103 1    
    92   46  104 1    
    93   47   48 2    
    94   47   49 am   BACKBONE|DICT|INTERRES
    95   49   50 1    
    96   49  105 1    
    97   50   51 1    
    98   50   52 1    
    99   50  106 1    
   100   51  107 1    
   101   51  108 1    
   102   51  109 1    
   103   52   53 2    
   104   52   54 am   BACKBONE|DICT|INTERRES
   105   54   55 1    
   106   54  110 1    
   107   55   56 1    
   108   55   59 1    
   109   55  111 1    
   110   56   57 am   BACKBONE|DICT|INTERRES
   111   56   58 2    
   112   57  112 1    
   113   57  113 1    
   114   59   60 1    
   115   59  114 1    
   116   59  115 1    
   117   60   61 1    
   118   61  116 1    
   119   61  117 1    
@<TRIPOS>SUBSTRUCTURE
     1 UNK         1 GROUP             0       ****    0 ROOT    
