@<TRIPOS>MOLECULE
3R8
117   119    1
SMALL
USER_CHARGES


@<TRIPOS>ATOM
      1 CA         13.2092  -27.4522  -40.8864 C.3       0 UNK        -0.2013 
      2 C          13.6716  -27.3055  -42.3281 C.2       0 UNK         0.4866 
      3 O          12.9349  -26.7736  -43.1589 O.2       0 UNK        -0.5176 
      4 N          14.8868  -27.7698  -42.6286 N.am      1 UNK        -0.4884 
      5 CA         15.5192  -27.7044  -43.9454 C.3       1 UNK         0.0853 
      6 C6         15.1372  -28.9277  -44.8191 C.3       10 UNK        -0.0849 
      7 S7         15.5872  -28.7212  -46.5769 S.3       10 UNK        -0.2776 
      8 C8         16.0441  -30.4228  -47.0493 C.3       10 UNK         0.0316 
      9 C9         17.3513  -30.8747  -46.4108 C.ar      10 UNK        -0.0863 
     10 C10        17.3418  -31.7463  -45.3179 C.ar      10 UNK        -0.1009 
     11 C11        18.5390  -32.1641  -44.7288 C.ar      10 UNK        -0.0712 
     12 C12        19.7567  -31.7107  -45.2489 C.ar      10 UNK        -0.0894 
     13 C13        19.7802  -30.8415  -46.3439 C.ar      10 UNK        -0.0745 
     14 C14        18.5741  -30.4335  -46.9237 C.ar      10 UNK        -0.0972 
     15 C15        21.1025  -30.3662  -46.9285 C.3       10 UNK         0.0209 
     16 S16        21.3086  -28.5631  -46.7847 S.3       10 UNK        -0.2568 
     17 C17        22.1511  -28.3920  -45.1785 C.3       10 UNK        -0.0983 
     18 CA         21.8351  -27.0186  -44.5332 C.3       3 UNK         0.0876 
     19 N          20.5858  -27.0461  -43.7700 N.am      3 UNK        -0.4424 
     20 C          19.7778  -25.9953  -43.5989 C.2       2 UNK         0.4918 
     21 O          19.8685  -24.9381  -44.2260 O.2       2 UNK        -0.4875 
     22 CA         18.7122  -26.1410  -42.5006 C.3       2 UNK         0.0481 
     23 CB         18.6549  -24.8929  -41.6038 C.3       2 UNK        -0.1831 
     24 N          17.3771  -26.4237  -43.0238 N.am      2 UNK        -0.4498 
     25 C          17.0266  -27.5316  -43.6927 C.2       1 UNK         0.5027 
     26 O          17.8183  -28.4173  -44.0069 O.2       1 UNK        -0.4969 
     27 C          22.9974  -26.5207  -43.6473 C.2       3 UNK         0.5005 
     28 O          23.9735  -25.9996  -44.1902 O.2       3 UNK        -0.5279 
     29 N          22.8581  -26.6504  -42.3158 N.am      4 UNK        -0.4463 
     30 CA         23.8033  -26.2317  -41.2729 C.3       4 UNK         0.0283 
     31 CB         24.0445  -24.7057  -41.3227 C.3       4 UNK        -0.1875 
     32 C          25.1067  -27.0547  -41.2973 C.2       4 UNK         0.4949 
     33 O          25.1514  -28.1140  -41.9279 O.2       4 UNK        -0.5039 
     34 N          26.1273  -26.5861  -40.5646 N.am      5 UNK        -0.4663 
     35 CA         27.4528  -27.2011  -40.4143 C.3       5 UNK         0.0242 
     36 CB         28.2720  -27.0094  -41.7125 C.3       5 UNK        -0.1982 
     37 C          27.3598  -28.6646  -39.9307 C.2       5 UNK         0.5017 
     38 O          26.7053  -28.9192  -38.9180 O.2       5 UNK        -0.5012 
     39 N          27.9939  -29.5927  -40.6588 N.am      6 UNK        -0.4439 
     40 CA         27.9586  -31.0319  -40.3927 C.3       6 UNK         0.0297 
     41 CB         29.1585  -31.6984  -41.0862 C.3       6 UNK        -0.2006 
     42 C          26.6452  -31.7099  -40.8280 C.2       6 UNK         0.4892 
     43 O          26.3508  -32.7963  -40.3277 O.2       6 UNK        -0.5089 
     44 N          25.8939  -31.0914  -41.7524 N.am      7 UNK        -0.4243 
     45 CA         24.6160  -31.6110  -42.2474 C.3       7 UNK         0.0196 
     46 CB         24.3025  -31.0111  -43.6282 C.3       7 UNK        -0.2007 
     47 C          23.4711  -31.3415  -41.2606 C.2       7 UNK         0.5020 
     48 O          22.6653  -32.2386  -41.0193 O.2       7 UNK        -0.5147 
     49 N          23.4456  -30.1244  -40.6975 N.am      8 UNK        -0.4734 
     50 CA         22.4449  -29.5989  -39.7623 C.3       8 UNK         0.0238 
     51 CB         22.4632  -30.3790  -38.4268 C.3       8 UNK        -0.1912 
     52 C          21.0612  -29.4876  -40.4325 C.2       8 UNK         0.5038 
     53 O          20.9370  -28.7246  -41.3943 O.2       8 UNK        -0.5046 
     54 N          20.0668  -30.2206  -39.9118 N.am      9 UNK        -0.4200 
     55 CA         18.6761  -30.3093  -40.3989 C.3       9 UNK         0.0839 
     56 C          17.8081  -29.0371  -40.1586 C.2       9 UNK         0.5513 
     57 N          18.2502  -28.0775  -39.3551 N.am      9 UNK        -0.7519 
     58 O          16.6968  -28.9313  -40.6734 O.2       9 UNK        -0.4960 
     59 C59        18.5701  -30.8401  -41.8567 C.3       10 UNK        -0.0876 
     60 S60        19.3743  -32.4630  -42.0783 S.3       10 UNK        -0.2414 
     61 C61        18.5052  -33.1161  -43.5390 C.3       10 UNK         0.0169 
     62 H62        12.9953  -26.4731  -40.4588 H         1 UNK         0.0903 
     63 H63        12.2995  -28.0504  -40.8429 H         1 UNK         0.0903 
     64 H64        13.9634  -27.9362  -40.2654 H         1 UNK         0.0903 
     65 H65        15.4703  -28.1801  -41.8987 H         1 UNK         0.3096 
     66 H66        15.1825  -26.8001  -44.4581 H         1 UNK         0.1121 
     67 H67        14.0576  -29.0818  -44.7855 H         1 UNK         0.0849 
     68 H68        15.5767  -29.8368  -44.4090 H         1 UNK         0.0849 
     69 H69        15.2303  -31.1014  -46.7887 H         1 UNK         0.0865 
     70 H70        16.1399  -30.4714  -48.1350 H         1 UNK         0.0865 
     71 H71        16.3988  -32.0970  -44.9219 H         1 UNK         0.1346 
     72 H72        20.6834  -32.0349  -44.7956 H         1 UNK         0.1412 
     73 H73        18.5880  -29.7604  -47.7702 H         1 UNK         0.1426 
     74 H74        21.1319  -30.6352  -47.9853 H         1 UNK         0.0716 
     75 H75        21.9493  -30.8726  -46.4623 H         1 UNK         0.0716 
     76 H76        21.8694  -29.2112  -44.5139 H         1 UNK         0.0695 
     77 H77        23.2191  -28.5068  -45.3749 H         1 UNK         0.0695 
     78 H78        21.7442  -26.2774  -45.3309 H         1 UNK         0.0983 
     79 H79        20.4199  -27.8760  -43.2103 H         1 UNK         0.3095 
     80 H80        18.9966  -26.9794  -41.8650 H         1 UNK         0.0454 
     81 H81        19.6400  -24.6618  -41.1962 H         1 UNK         0.0851 
     82 H82        18.3150  -24.0137  -42.1526 H         1 UNK         0.0851 
     83 H83        17.9839  -25.0423  -40.7580 H         1 UNK         0.0851 
     84 H84        16.6557  -25.7543  -42.7983 H         1 UNK         0.2976 
     85 H85        22.0559  -27.1791  -41.9876 H         1 UNK         0.3116 
     86 H86        23.3155  -26.4519  -40.3234 H         1 UNK         0.0646 
     87 H87        24.5307  -24.3474  -40.4152 H         1 UNK         0.0847 
     88 H88        23.1051  -24.1599  -41.4123 H         1 UNK         0.0847 
     89 H89        24.6758  -24.4203  -42.1650 H         1 UNK         0.0847 
     90 H90        25.9806  -25.7383  -40.0349 H         1 UNK         0.3040 
     91 H91        27.9622  -26.6562  -39.6178 H         1 UNK         0.1015 
     92 H92        28.3349  -25.9540  -41.9783 H         1 UNK         0.0786 
     93 H93        27.8282  -27.5311  -42.5617 H         1 UNK         0.0786 
     94 H94        29.2971  -27.3636  -41.5950 H         1 UNK         0.0786 
     95 H95        28.5019  -29.2913  -41.4782 H         1 UNK         0.3172 
     96 H96        28.0636  -31.1857  -39.3165 H         1 UNK         0.0595 
     97 H97        29.1831  -32.7693  -40.8792 H         1 UNK         0.0839 
     98 H98        30.1029  -31.2821  -40.7351 H         1 UNK         0.0839 
     99 H99        29.1186  -31.5783  -42.1696 H         1 UNK         0.0839 
    100 H100       26.1624  -30.1676  -42.0660 H         1 UNK         0.2998 
    101 H101       24.7023  -32.6934  -42.3682 H         1 UNK         0.0822 
    102 H102       25.0739  -31.2650  -44.3552 H         1 UNK         0.0787 
    103 H103       23.3556  -31.3931  -44.0124 H         1 UNK         0.0787 
    104 H104       24.2234  -29.9250  -43.5900 H         1 UNK         0.0787 
    105 H105       24.1336  -29.4536  -41.0306 H         1 UNK         0.3055 
    106 H106       22.7461  -28.5773  -39.5331 H         1 UNK         0.1106 
    107 H107       22.1780  -31.4245  -38.5465 H         1 UNK         0.0828 
    108 H108       23.4597  -30.3629  -37.9845 H         1 UNK         0.0828 
    109 H109       21.7870  -29.9304  -37.6978 H         1 UNK         0.0828 
    110 H110       20.2837  -30.8155  -39.1264 H         1 UNK         0.2931 
    111 H111       18.2118  -31.0623  -39.7613 H         1 UNK         0.0412 
    112 H112       19.1464  -28.1594  -38.9043 H         1 UNK         0.3472 
    113 H113       17.6698  -27.2723  -39.1849 H         1 UNK         0.3472 
    114 H114       17.5250  -30.9307  -42.1582 H         1 UNK         0.0970 
    115 H115       19.0258  -30.1382  -42.5551 H         1 UNK         0.0970 
    116 H116       18.9658  -34.0614  -43.8283 H         1 UNK         0.0612 
    117 H117       17.4776  -33.3478  -43.2546 H         1 UNK         0.0612 
@<TRIPOS>BOND
     1    1    2 1    
     2    1   62 1    
     3    1   63 1    
     4    1   64 1    
     5    2    3 2    
     6    2    4 am   BACKBONE|DICT|INTERRES
     7    4    5 1    
     8    4   65 1    
     9    5    6 1    
    10    5   25 1    
    11    5   66 1    
    12    6    7 1    
    13    6   67 1    
    14    6   68 1    
    15    7    8 1    
    16    8    9 1    
    17    8   69 1    
    18    8   70 1    
    19    9   10 ar   
    20    9   14 ar   
    21   10   11 ar   
    22   10   71 1    
    23   11   12 ar   
    24   11   61 1    
    25   12   13 ar   
    26   12   72 1    
    27   13   14 ar   
    28   13   15 1    
    29   14   73 1    
    30   15   16 1    
    31   15   74 1    
    32   15   75 1    
    33   16   17 1    
    34   17   18 1    
    35   17   76 1    
    36   17   77 1    
    37   18   19 1    
    38   18   27 1    
    39   18   78 1    
    40   19   20 am   BACKBONE|DICT|INTERRES
    41   19   79 1    
    42   20   21 2    
    43   20   22 1    
    44   22   23 1    
    45   22   24 1    
    46   22   80 1    
    47   23   81 1    
    48   23   82 1    
    49   23   83 1    
    50   24   25 am   BACKBONE|DICT|INTERRES
    51   24   84 1    
    52   25   26 2    
    53   27   28 2    
    54   27   29 am   BACKBONE|DICT|INTERRES
    55   29   30 1    
    56   29   85 1    
    57   30   31 1    
    58   30   32 1    
    59   30   86 1    
    60   31   87 1    
    61   31   88 1    
    62   31   89 1    
    63   32   33 2    
    64   32   34 am   BACKBONE|DICT|INTERRES
    65   34   35 1    
    66   34   90 1    
    67   35   36 1    
    68   35   37 1    
    69   35   91 1    
    70   36   92 1    
    71   36   93 1    
    72   36   94 1    
    73   37   38 2    
    74   37   39 am   BACKBONE|DICT|INTERRES
    75   39   40 1    
    76   39   95 1    
    77   40   41 1    
    78   40   42 1    
    79   40   96 1    
    80   41   97 1    
    81   41   98 1    
    82   41   99 1    
    83   42   43 2    
    84   42   44 am   BACKBONE|DICT|INTERRES
    85   44   45 1    
    86   44  100 1    
    87   45   46 1    
    88   45   47 1    
    89   45  101 1    
    90   46  102 1    
    91   46  103 1    
    92   46  104 1    
    93   47   48 2    
    94   47   49 am   BACKBONE|DICT|INTERRES
    95   49   50 1    
    96   49  105 1    
    97   50   51 1    
    98   50   52 1    
    99   50  106 1    
   100   51  107 1    
   101   51  108 1    
   102   51  109 1    
   103   52   53 2    
   104   52   54 am   BACKBONE|DICT|INTERRES
   105   54   55 1    
   106   54  110 1    
   107   55   56 1    
   108   55   59 1    
   109   55  111 1    
   110   56   57 am   BACKBONE|DICT|INTERRES
   111   56   58 2    
   112   57  112 1    
   113   57  113 1    
   114   59   60 1    
   115   59  114 1    
   116   59  115 1    
   117   60   61 1    
   118   61  116 1    
   119   61  117 1    
@<TRIPOS>SUBSTRUCTURE
     1 UNK         1 GROUP             0       ****    0 ROOT    
