@<TRIPOS>MOLECULE
3R8
117   119    1
SMALL
USER_CHARGES


@<TRIPOS>ATOM
      1 CA         20.1562  -25.0420  -39.0709 C.3       0 UNK        -0.2013 
      2 C          19.3321  -24.8352  -40.3329 C.2       0 UNK         0.4866 
      3 O          18.7468  -23.7677  -40.5178 O.2       0 UNK        -0.5176 
      4 N          19.2764  -25.8540  -41.1961 N.am      1 UNK        -0.4884 
      5 CA         18.5897  -25.8419  -42.4879 C.3       1 UNK         0.0853 
      6 C6         18.2569  -27.2930  -42.9218 C.3       10 UNK        -0.0849 
      7 S7         16.8109  -27.3982  -44.0251 S.3       10 UNK        -0.2776 
      8 C8         16.3784  -29.1618  -43.8487 C.3       10 UNK         0.0316 
      9 C9         17.4963  -30.0926  -44.3069 C.ar      10 UNK        -0.0863 
     10 C10        17.9764  -31.0955  -43.4566 C.ar      10 UNK        -0.1009 
     11 C11        18.9719  -31.9775  -43.8905 C.ar      10 UNK        -0.0712 
     12 C12        19.5113  -31.8272  -45.1721 C.ar      10 UNK        -0.0894 
     13 C13        19.0528  -30.8205  -46.0265 C.ar      10 UNK        -0.0745 
     14 C14        18.0294  -29.9718  -45.5940 C.ar      10 UNK        -0.0972 
     15 C15        19.6473  -30.6761  -47.4235 C.3       10 UNK         0.0209 
     16 S16        20.1528  -28.9691  -47.8200 S.3       10 UNK        -0.2568 
     17 C17        21.4420  -28.6668  -46.5655 C.3       10 UNK        -0.0983 
     18 CA         21.8719  -27.1780  -46.5278 C.3       3 UNK         0.0876 
     19 N          20.7478  -26.3026  -46.1923 N.am      3 UNK        -0.4424 
     20 C          20.6639  -24.9924  -46.4545 C.2       2 UNK         0.4918 
     21 O          21.5218  -24.3668  -47.0794 O.2       2 UNK        -0.4875 
     22 CA         19.4344  -24.2440  -45.9030 C.3       2 UNK         0.0481 
     23 CB         18.3750  -24.0790  -47.0036 C.3       2 UNK        -0.1831 
     24 N          18.8176  -24.8793  -44.7315 N.am      2 UNK        -0.4498 
     25 C          19.4245  -25.1002  -43.5566 C.2       1 UNK         0.5027 
     26 O          20.5949  -24.7793  -43.3325 O.2       1 UNK        -0.4969 
     27 C          23.0526  -26.9330  -45.5620 C.2       3 UNK         0.5005 
     28 O          23.3545  -27.7854  -44.7262 O.2       3 UNK        -0.5279 
     29 N          23.6856  -25.7561  -45.6814 N.am      4 UNK        -0.4463 
     30 CA         24.9078  -25.3233  -44.9884 C.3       4 UNK         0.0283 
     31 CB         26.1259  -26.0924  -45.5429 C.3       4 UNK        -0.1875 
     32 C          24.8264  -25.3826  -43.4477 C.2       4 UNK         0.4949 
     33 O          25.8179  -25.7155  -42.7968 O.2       4 UNK        -0.5039 
     34 N          23.6464  -25.0624  -42.8957 N.am      5 UNK        -0.4663 
     35 CA         23.3068  -25.0672  -41.4663 C.3       5 UNK         0.0242 
     36 CB         24.1701  -24.0601  -40.6753 C.3       5 UNK        -0.1982 
     37 C          23.2811  -26.4680  -40.8211 C.2       5 UNK         0.5017 
     38 O          23.3146  -26.5595  -39.5924 O.2       5 UNK        -0.5012 
     39 N          23.1861  -27.5324  -41.6325 N.am      6 UNK        -0.4439 
     40 CA         22.9414  -28.8995  -41.1650 C.3       6 UNK         0.0297 
     41 CB         23.2541  -29.8874  -42.2998 C.3       6 UNK        -0.2006 
     42 C          21.4875  -29.0699  -40.6908 C.2       6 UNK         0.4892 
     43 O          20.6186  -28.2872  -41.0767 O.2       6 UNK        -0.5089 
     44 N          21.2438  -30.1011  -39.8793 N.am      7 UNK        -0.4243 
     45 CA         19.9159  -30.4834  -39.3973 C.3       7 UNK         0.0196 
     46 CB         19.4105  -29.5188  -38.3059 C.3       7 UNK        -0.2007 
     47 C          19.9635  -31.9272  -38.8974 C.2       7 UNK         0.5020 
     48 O          19.1880  -32.7639  -39.3595 O.2       7 UNK        -0.5147 
     49 N          20.9239  -32.2163  -38.0086 N.am      8 UNK        -0.4734 
     50 CA         21.2547  -33.5647  -37.5410 C.3       8 UNK         0.0238 
     51 CB         21.9063  -33.4661  -36.1486 C.3       8 UNK        -0.1912 
     52 C          22.1511  -34.2811  -38.5692 C.2       8 UNK         0.5038 
     53 O          23.3136  -34.5716  -38.2813 O.2       8 UNK        -0.5046 
     54 N          21.6023  -34.5012  -39.7698 N.am      9 UNK        -0.4200 
     55 CA         22.2946  -35.0871  -40.9284 C.3       9 UNK         0.0839 
     56 C          22.6575  -36.5951  -40.7865 C.2       9 UNK         0.5513 
     57 N          22.1003  -37.3295  -39.8309 N.am      9 UNK        -0.7519 
     58 O          23.4621  -37.1063  -41.5611 O.2       9 UNK        -0.4960 
     59 C59        21.5173  -34.8396  -42.2474 C.3       10 UNK        -0.0876 
     60 S60        21.1838  -33.0746  -42.5910 S.3       10 UNK        -0.2414 
     61 C61        19.4131  -33.1415  -43.0128 C.3       10 UNK         0.0169 
     62 H62        20.9939  -24.3455  -39.0494 H         1 UNK         0.0903 
     63 H63        20.5557  -26.0547  -39.0091 H         1 UNK         0.0903 
     64 H64        19.5427  -24.8668  -38.1876 H         1 UNK         0.0903 
     65 H65        19.8102  -26.7057  -41.0171 H         1 UNK         0.3096 
     66 H66        17.6566  -25.2888  -42.3570 H         1 UNK         0.1121 
     67 H67        18.0242  -27.8954  -42.0414 H         1 UNK         0.0849 
     68 H68        19.1148  -27.7827  -43.3886 H         1 UNK         0.0849 
     69 H69        16.1078  -29.3581  -42.8100 H         1 UNK         0.0865 
     70 H70        15.4858  -29.3666  -44.4412 H         1 UNK         0.0865 
     71 H71        17.5548  -31.2102  -42.4673 H         1 UNK         0.1346 
     72 H72        20.2815  -32.5091  -45.5064 H         1 UNK         0.1412 
     73 H73        17.6553  -29.2040  -46.2576 H         1 UNK         0.1426 
     74 H74        20.5112  -31.3310  -47.5478 H         1 UNK         0.0716 
     75 H75        18.9057  -31.0009  -48.1542 H         1 UNK         0.0716 
     76 H76        22.2941  -29.3087  -46.7969 H         1 UNK         0.0695 
     77 H77        21.0735  -28.9812  -45.5870 H         1 UNK         0.0695 
     78 H78        22.2246  -26.9158  -47.5281 H         1 UNK         0.0983 
     79 H79        19.9960  -26.7325  -45.6757 H         1 UNK         0.3095 
     80 H80        19.7691  -23.2504  -45.5985 H         1 UNK         0.0454 
     81 H81        17.5376  -23.4701  -46.6625 H         1 UNK         0.0851 
     82 H82        17.9803  -25.0415  -47.3320 H         1 UNK         0.0851 
     83 H83        18.7959  -23.5839  -47.8800 H         1 UNK         0.0851 
     84 H84        17.8681  -25.2101  -44.8439 H         1 UNK         0.2976 
     85 H85        23.2879  -25.0896  -46.3369 H         1 UNK         0.3116 
     86 H86        25.0419  -24.2702  -45.2395 H         1 UNK         0.0646 
     87 H87        26.1886  -26.0103  -46.6279 H         1 UNK         0.0847 
     88 H88        27.0587  -25.6984  -45.1374 H         1 UNK         0.0847 
     89 H89        26.0820  -27.1520  -45.2881 H         1 UNK         0.0847 
     90 H90        22.8718  -24.8423  -43.5114 H         1 UNK         0.3040 
     91 H91        22.2791  -24.7100  -41.4063 H         1 UNK         0.1015 
     92 H92        25.2072  -24.3865  -40.5952 H         1 UNK         0.0786 
     93 H93        23.7930  -23.9356  -39.6595 H         1 UNK         0.0786 
     94 H94        24.1615  -23.0759  -41.1435 H         1 UNK         0.0786 
     95 H95        23.1641  -27.3871  -42.6364 H         1 UNK         0.3172 
     96 H96        23.6123  -29.1041  -40.3280 H         1 UNK         0.0595 
     97 H97        24.2490  -29.7203  -42.7130 H         1 UNK         0.0839 
     98 H98        22.5347  -29.8048  -43.1163 H         1 UNK         0.0839 
     99 H99        23.2221  -30.9170  -41.9428 H         1 UNK         0.0839 
    100 H100       21.9978  -30.7365  -39.6583 H         1 UNK         0.2998 
    101 H101       19.2211  -30.4536  -40.2402 H         1 UNK         0.0822 
    102 H102       18.4532  -29.8529  -37.9035 H         1 UNK         0.0787 
    103 H103       20.1095  -29.4449  -37.4723 H         1 UNK         0.0787 
    104 H104       19.2579  -28.5146  -38.7015 H         1 UNK         0.0787 
    105 H105       21.5094  -31.4682  -37.6651 H         1 UNK         0.3055 
    106 H106       20.3377  -34.1504  -37.4395 H         1 UNK         0.1106 
    107 H107       21.2345  -32.9979  -35.4289 H         1 UNK         0.0828 
    108 H108       22.1522  -34.4563  -35.7623 H         1 UNK         0.0828 
    109 H109       22.8302  -32.8867  -36.1713 H         1 UNK         0.0828 
    110 H110       20.6528  -34.1832  -39.9246 H         1 UNK         0.2931 
    111 H111       23.2478  -34.5618  -41.0163 H         1 UNK         0.0412 
    112 H112       21.4384  -36.9204  -39.1912 H         1 UNK         0.3472 
    113 H113       22.3465  -38.3037  -39.7489 H         1 UNK         0.3472 
    114 H114       22.0789  -35.2315  -43.0979 H         1 UNK         0.0970 
    115 H115       20.5789  -35.3966  -42.2280 H         1 UNK         0.0970 
    116 H116       19.2004  -34.0646  -43.5537 H         1 UNK         0.0612 
    117 H117       18.8318  -33.1815  -42.0906 H         1 UNK         0.0612 
@<TRIPOS>BOND
     1    1    2 1    
     2    1   62 1    
     3    1   63 1    
     4    1   64 1    
     5    2    3 2    
     6    2    4 am   BACKBONE|DICT|INTERRES
     7    4    5 1    
     8    4   65 1    
     9    5    6 1    
    10    5   25 1    
    11    5   66 1    
    12    6    7 1    
    13    6   67 1    
    14    6   68 1    
    15    7    8 1    
    16    8    9 1    
    17    8   69 1    
    18    8   70 1    
    19    9   10 ar   
    20    9   14 ar   
    21   10   11 ar   
    22   10   71 1    
    23   11   12 ar   
    24   11   61 1    
    25   12   13 ar   
    26   12   72 1    
    27   13   14 ar   
    28   13   15 1    
    29   14   73 1    
    30   15   16 1    
    31   15   74 1    
    32   15   75 1    
    33   16   17 1    
    34   17   18 1    
    35   17   76 1    
    36   17   77 1    
    37   18   19 1    
    38   18   27 1    
    39   18   78 1    
    40   19   20 am   BACKBONE|DICT|INTERRES
    41   19   79 1    
    42   20   21 2    
    43   20   22 1    
    44   22   23 1    
    45   22   24 1    
    46   22   80 1    
    47   23   81 1    
    48   23   82 1    
    49   23   83 1    
    50   24   25 am   BACKBONE|DICT|INTERRES
    51   24   84 1    
    52   25   26 2    
    53   27   28 2    
    54   27   29 am   BACKBONE|DICT|INTERRES
    55   29   30 1    
    56   29   85 1    
    57   30   31 1    
    58   30   32 1    
    59   30   86 1    
    60   31   87 1    
    61   31   88 1    
    62   31   89 1    
    63   32   33 2    
    64   32   34 am   BACKBONE|DICT|INTERRES
    65   34   35 1    
    66   34   90 1    
    67   35   36 1    
    68   35   37 1    
    69   35   91 1    
    70   36   92 1    
    71   36   93 1    
    72   36   94 1    
    73   37   38 2    
    74   37   39 am   BACKBONE|DICT|INTERRES
    75   39   40 1    
    76   39   95 1    
    77   40   41 1    
    78   40   42 1    
    79   40   96 1    
    80   41   97 1    
    81   41   98 1    
    82   41   99 1    
    83   42   43 2    
    84   42   44 am   BACKBONE|DICT|INTERRES
    85   44   45 1    
    86   44  100 1    
    87   45   46 1    
    88   45   47 1    
    89   45  101 1    
    90   46  102 1    
    91   46  103 1    
    92   46  104 1    
    93   47   48 2    
    94   47   49 am   BACKBONE|DICT|INTERRES
    95   49   50 1    
    96   49  105 1    
    97   50   51 1    
    98   50   52 1    
    99   50  106 1    
   100   51  107 1    
   101   51  108 1    
   102   51  109 1    
   103   52   53 2    
   104   52   54 am   BACKBONE|DICT|INTERRES
   105   54   55 1    
   106   54  110 1    
   107   55   56 1    
   108   55   59 1    
   109   55  111 1    
   110   56   57 am   BACKBONE|DICT|INTERRES
   111   56   58 2    
   112   57  112 1    
   113   57  113 1    
   114   59   60 1    
   115   59  114 1    
   116   59  115 1    
   117   60   61 1    
   118   61  116 1    
   119   61  117 1    
@<TRIPOS>SUBSTRUCTURE
     1 UNK         1 GROUP             0       ****    0 ROOT    
