@<TRIPOS>MOLECULE
3R8
117   119    1
SMALL
USER_CHARGES


@<TRIPOS>ATOM
      1 CA         19.7864  -22.1826  -42.3217 C.3       0 UNK        -0.2013 
      2 C          19.4305  -23.5345  -42.9211 C.2       0 UNK         0.4866 
      3 O          20.3266  -24.2831  -43.3048 O.2       0 UNK        -0.5176 
      4 N          18.1275  -23.8410  -43.0176 N.am      1 UNK        -0.4884 
      5 CA         17.5486  -25.1053  -43.5099 C.3       1 UNK         0.0853 
      6 C6         17.9241  -26.3282  -42.6174 C.3       10 UNK        -0.0849 
      7 S7         16.4682  -27.2183  -41.9638 S.3       10 UNK        -0.2776 
      8 C8         16.1440  -28.4914  -43.2377 C.3       10 UNK         0.0316 
      9 C9         17.3405  -29.3795  -43.5738 C.ar      10 UNK        -0.0863 
     10 C10        18.2163  -29.8307  -42.5809 C.ar      10 UNK        -0.1009 
     11 C11        19.3366  -30.5973  -42.9118 C.ar      10 UNK        -0.0712 
     12 C12        19.5643  -30.9454  -44.2462 C.ar      10 UNK        -0.0894 
     13 C13        18.6878  -30.5150  -45.2490 C.ar      10 UNK        -0.0745 
     14 C14        17.5767  -29.7402  -44.9041 C.ar      10 UNK        -0.0972 
     15 C15        18.9607  -30.8534  -46.7104 C.3       10 UNK         0.0209 
     16 S16        19.3729  -29.3797  -47.7085 S.3       10 UNK        -0.2568 
     17 C17        20.8429  -28.7523  -46.8309 C.3       10 UNK        -0.0983 
     18 CA         21.1760  -27.2667  -47.1317 C.3       3 UNK         0.0876 
     19 N          20.0280  -26.3720  -46.9672 N.am      3 UNK        -0.4424 
     20 C          19.9414  -25.1304  -47.4601 C.2       2 UNK         0.4918 
     21 O          20.8262  -24.6000  -48.1324 O.2       2 UNK        -0.4875 
     22 CA         18.6552  -24.3325  -47.1684 C.3       2 UNK         0.0481 
     23 CB         17.5094  -24.7567  -48.1083 C.3       2 UNK        -0.1831 
     24 N          18.2434  -24.3430  -45.7576 N.am      2 UNK        -0.4498 
     25 C          17.8041  -25.3705  -45.0153 C.2       1 UNK         0.5027 
     26 O          17.6096  -26.4941  -45.4788 O.2       1 UNK        -0.4969 
     27 C          22.3547  -26.8012  -46.2556 C.2       3 UNK         0.5005 
     28 O          23.4021  -26.4213  -46.7819 O.2       3 UNK        -0.5279 
     29 N          22.1498  -26.8630  -44.9344 N.am      4 UNK        -0.4463 
     30 CA         23.1043  -26.6381  -43.8530 C.3       4 UNK         0.0283 
     31 CB         24.3226  -27.5795  -43.9858 C.3       4 UNK        -0.1875 
     32 C          22.3700  -26.8995  -42.5281 C.2       4 UNK         0.4949 
     33 O          21.2373  -27.3896  -42.5399 O.2       4 UNK        -0.5039 
     34 N          23.0368  -26.5810  -41.4112 N.am      5 UNK        -0.4663 
     35 CA         22.5627  -26.8226  -40.0447 C.3       5 UNK         0.0242 
     36 CB         23.5364  -26.1449  -39.0647 C.3       5 UNK        -0.1982 
     37 C          22.4148  -28.3200  -39.7082 C.2       5 UNK         0.5017 
     38 O          22.9699  -29.1702  -40.4075 O.2       5 UNK        -0.5012 
     39 N          21.7015  -28.6041  -38.6071 N.am      6 UNK        -0.4439 
     40 CA         21.3229  -29.9385  -38.1147 C.3       6 UNK         0.0297 
     41 CB         20.6197  -29.7950  -36.7558 C.3       6 UNK        -0.2006 
     42 C          22.4593  -30.9733  -38.0136 C.2       6 UNK         0.4892 
     43 O          22.2041  -32.1636  -38.1923 O.2       6 UNK        -0.5089 
     44 N          23.6958  -30.5138  -37.7789 N.am      7 UNK        -0.4243 
     45 CA         24.9107  -31.3355  -37.7716 C.3       7 UNK         0.0196 
     46 CB         26.1057  -30.4557  -37.3702 C.3       7 UNK        -0.2007 
     47 C          25.1989  -32.0560  -39.1054 C.2       7 UNK         0.5020 
     48 O          25.8914  -33.0738  -39.0959 O.2       7 UNK        -0.5147 
     49 N          24.6661  -31.5361  -40.2203 N.am      8 UNK        -0.4734 
     50 CA         24.7987  -32.1220  -41.5551 C.3       8 UNK         0.0238 
     51 CB         24.6696  -31.0028  -42.6016 C.3       8 UNK        -0.1912 
     52 C          23.7880  -33.2478  -41.8471 C.2       8 UNK         0.5038 
     53 O          23.9320  -33.8986  -42.8834 O.2       8 UNK        -0.5046 
     54 N          22.7887  -33.4561  -40.9777 N.am      9 UNK        -0.4200 
     55 CA         21.7115  -34.4431  -41.1732 C.3       9 UNK         0.0839 
     56 C          21.3658  -35.2872  -39.9157 C.2       9 UNK         0.5513 
     57 N          21.7276  -34.8807  -38.7062 N.am      9 UNK        -0.7519 
     58 O          20.7791  -36.3589  -40.0455 O.2       9 UNK        -0.4960 
     59 C59        20.4552  -33.8162  -41.8379 C.3       10 UNK        -0.0876 
     60 S60        19.7384  -32.4359  -40.8786 S.3       10 UNK        -0.2414 
     61 C61        20.3194  -30.9939  -41.8227 C.3       10 UNK         0.0169 
     62 H62        20.4085  -22.3186  -41.4374 H         1 UNK         0.0903 
     63 H63        18.9012  -21.6179  -42.0298 H         1 UNK         0.0903 
     64 H64        20.3462  -21.5880  -43.0431 H         1 UNK         0.0903 
     65 H65        17.4473  -23.1644  -42.6965 H         1 UNK         0.3096 
     66 H66        16.4701  -24.9522  -43.4478 H         1 UNK         0.1121 
     67 H67        18.5991  -27.0210  -43.1227 H         1 UNK         0.0849 
     68 H68        18.4904  -26.0036  -41.7434 H         1 UNK         0.0849 
     69 H69        15.3271  -29.1273  -42.8948 H         1 UNK         0.0865 
     70 H70        15.7819  -27.9880  -44.1354 H         1 UNK         0.0865 
     71 H71        18.0474  -29.5586  -41.5483 H         1 UNK         0.1346 
     72 H72        20.4373  -31.5279  -44.5064 H         1 UNK         0.1412 
     73 H73        16.9139  -29.3885  -45.6833 H         1 UNK         0.1426 
     74 H74        19.7737  -31.5760  -46.7956 H         1 UNK         0.0716 
     75 H75        18.0787  -31.3330  -47.1368 H         1 UNK         0.0716 
     76 H76        21.6894  -29.3898  -47.0925 H         1 UNK         0.0695 
     77 H77        20.6823  -28.8885  -45.7619 H         1 UNK         0.0695 
     78 H78        21.4962  -27.2054  -48.1743 H         1 UNK         0.0983 
     79 H79        19.2339  -26.7285  -46.4422 H         1 UNK         0.3095 
     80 H80        18.8803  -23.2881  -47.3904 H         1 UNK         0.0454 
     81 H81        16.6154  -24.1565  -47.9406 H         1 UNK         0.0851 
     82 H82        17.2384  -25.8052  -47.9820 H         1 UNK         0.0851 
     83 H83        17.7973  -24.6244  -49.1520 H         1 UNK         0.0851 
     84 H84        18.3976  -23.4753  -45.2633 H         1 UNK         0.2976 
     85 H85        21.2411  -27.1467  -44.5831 H         1 UNK         0.3116 
     86 H86        23.4254  -25.5953  -43.8762 H         1 UNK         0.0646 
     87 H87        24.9361  -27.3270  -44.8500 H         1 UNK         0.0847 
     88 H88        24.9755  -27.5236  -43.1143 H         1 UNK         0.0847 
     89 H89        24.0099  -28.6179  -44.0925 H         1 UNK         0.0847 
     90 H90        23.9700  -26.2071  -41.4998 H         1 UNK         0.3040 
     91 H91        21.5786  -26.3579  -39.9504 H         1 UNK         0.1015 
     92 H92        24.5348  -26.5807  -39.1235 H         1 UNK         0.0786 
     93 H93        23.1982  -26.2450  -38.0325 H         1 UNK         0.0786 
     94 H94        23.6244  -25.0772  -39.2677 H         1 UNK         0.0786 
     95 H95        21.3166  -27.8273  -38.0887 H         1 UNK         0.3172 
     96 H96        20.5952  -30.3396  -38.8204 H         1 UNK         0.0595 
     97 H97        21.2750  -29.3488  -36.0066 H         1 UNK         0.0839 
     98 H98        20.3046  -30.7677  -36.3746 H         1 UNK         0.0839 
     99 H99        19.7245  -29.1776  -36.8326 H         1 UNK         0.0839 
    100 H100       23.8174  -29.5187  -37.6626 H         1 UNK         0.2998 
    101 H101       24.7798  -32.1078  -37.0107 H         1 UNK         0.0822 
    102 H102       25.9601  -30.0118  -36.3852 H         1 UNK         0.0787 
    103 H103       27.0250  -31.0417  -37.3264 H         1 UNK         0.0787 
    104 H104       26.2681  -29.6473  -38.0844 H         1 UNK         0.0787 
    105 H105       24.0968  -30.6943  -40.1532 H         1 UNK         0.3055 
    106 H106       25.7961  -32.5575  -41.6502 H         1 UNK         0.1106 
    107 H107       25.3984  -30.2110  -42.4280 H         1 UNK         0.0828 
    108 H108       24.8404  -31.3843  -43.6092 H         1 UNK         0.0828 
    109 H109       23.6766  -30.5530  -42.5885 H         1 UNK         0.0828 
    110 H110       22.7315  -32.8952  -40.1366 H         1 UNK         0.2931 
    111 H111       22.0776  -35.1947  -41.8753 H         1 UNK         0.0412 
    112 H112       21.5042  -35.4607  -37.9136 H         1 UNK         0.3472 
    113 H113       22.0805  -33.9401  -38.5505 H         1 UNK         0.3472 
    114 H114       20.7063  -33.4701  -42.8411 H         1 UNK         0.0970 
    115 H115       19.6814  -34.5725  -41.9820 H         1 UNK         0.0970 
    116 H116       20.4418  -30.1524  -41.1415 H         1 UNK         0.0612 
    117 H117       21.3095  -31.1855  -42.2376 H         1 UNK         0.0612 
@<TRIPOS>BOND
     1    1    2 1    
     2    1   62 1    
     3    1   63 1    
     4    1   64 1    
     5    2    3 2    
     6    2    4 am   BACKBONE|DICT|INTERRES
     7    4    5 1    
     8    4   65 1    
     9    5    6 1    
    10    5   25 1    
    11    5   66 1    
    12    6    7 1    
    13    6   67 1    
    14    6   68 1    
    15    7    8 1    
    16    8    9 1    
    17    8   69 1    
    18    8   70 1    
    19    9   10 ar   
    20    9   14 ar   
    21   10   11 ar   
    22   10   71 1    
    23   11   12 ar   
    24   11   61 1    
    25   12   13 ar   
    26   12   72 1    
    27   13   14 ar   
    28   13   15 1    
    29   14   73 1    
    30   15   16 1    
    31   15   74 1    
    32   15   75 1    
    33   16   17 1    
    34   17   18 1    
    35   17   76 1    
    36   17   77 1    
    37   18   19 1    
    38   18   27 1    
    39   18   78 1    
    40   19   20 am   BACKBONE|DICT|INTERRES
    41   19   79 1    
    42   20   21 2    
    43   20   22 1    
    44   22   23 1    
    45   22   24 1    
    46   22   80 1    
    47   23   81 1    
    48   23   82 1    
    49   23   83 1    
    50   24   25 am   BACKBONE|DICT|INTERRES
    51   24   84 1    
    52   25   26 2    
    53   27   28 2    
    54   27   29 am   BACKBONE|DICT|INTERRES
    55   29   30 1    
    56   29   85 1    
    57   30   31 1    
    58   30   32 1    
    59   30   86 1    
    60   31   87 1    
    61   31   88 1    
    62   31   89 1    
    63   32   33 2    
    64   32   34 am   BACKBONE|DICT|INTERRES
    65   34   35 1    
    66   34   90 1    
    67   35   36 1    
    68   35   37 1    
    69   35   91 1    
    70   36   92 1    
    71   36   93 1    
    72   36   94 1    
    73   37   38 2    
    74   37   39 am   BACKBONE|DICT|INTERRES
    75   39   40 1    
    76   39   95 1    
    77   40   41 1    
    78   40   42 1    
    79   40   96 1    
    80   41   97 1    
    81   41   98 1    
    82   41   99 1    
    83   42   43 2    
    84   42   44 am   BACKBONE|DICT|INTERRES
    85   44   45 1    
    86   44  100 1    
    87   45   46 1    
    88   45   47 1    
    89   45  101 1    
    90   46  102 1    
    91   46  103 1    
    92   46  104 1    
    93   47   48 2    
    94   47   49 am   BACKBONE|DICT|INTERRES
    95   49   50 1    
    96   49  105 1    
    97   50   51 1    
    98   50   52 1    
    99   50  106 1    
   100   51  107 1    
   101   51  108 1    
   102   51  109 1    
   103   52   53 2    
   104   52   54 am   BACKBONE|DICT|INTERRES
   105   54   55 1    
   106   54  110 1    
   107   55   56 1    
   108   55   59 1    
   109   55  111 1    
   110   56   57 am   BACKBONE|DICT|INTERRES
   111   56   58 2    
   112   57  112 1    
   113   57  113 1    
   114   59   60 1    
   115   59  114 1    
   116   59  115 1    
   117   60   61 1    
   118   61  116 1    
   119   61  117 1    
@<TRIPOS>SUBSTRUCTURE
     1 UNK         1 GROUP             0       ****    0 ROOT    
