@<TRIPOS>MOLECULE
3R8
117   119    1
SMALL
USER_CHARGES


@<TRIPOS>ATOM
      1 CA         19.8383  -22.3864  -46.9653 C.3       0 UNK        -0.2013 
      2 C          19.3613  -23.5471  -47.8353 C.2       0 UNK         0.4866 
      3 O          18.9201  -23.3135  -48.9586 O.2       0 UNK        -0.5176 
      4 N          19.4313  -24.8077  -47.3820 N.am      1 UNK        -0.4884 
      5 CA         19.8645  -25.2661  -46.0544 C.3       1 UNK         0.0853 
      6 C6         20.0765  -26.8042  -46.0139 C.3       10 UNK        -0.0849 
      7 S7         18.6412  -27.7608  -46.6233 S.3       10 UNK        -0.2776 
      8 C8         19.1774  -29.4731  -46.3179 C.3       10 UNK         0.0316 
      9 C9         19.0011  -29.8754  -44.8608 C.ar      10 UNK        -0.0863 
     10 C10        20.1133  -30.1265  -44.0523 C.ar      10 UNK        -0.1009 
     11 C11        19.9467  -30.5356  -42.7252 C.ar      10 UNK        -0.0712 
     12 C12        18.6572  -30.6673  -42.2002 C.ar      10 UNK        -0.0894 
     13 C13        17.5370  -30.4031  -42.9949 C.ar      10 UNK        -0.0745 
     14 C14        17.7169  -30.0246  -44.3288 C.ar      10 UNK        -0.0972 
     15 C15        16.1333  -30.5104  -42.4130 C.3       10 UNK         0.0209 
     16 S16        15.2665  -28.9047  -42.4092 S.3       10 UNK        -0.2568 
     17 C17        16.2132  -27.9529  -41.1698 C.3       10 UNK        -0.0983 
     18 CA         17.4380  -27.2078  -41.7700 C.3       3 UNK         0.0876 
     19 N          17.1261  -26.3834  -42.9433 N.am      3 UNK        -0.4424 
     20 C          16.4480  -25.2281  -42.9738 C.2       2 UNK         0.4918 
     21 O          15.8457  -24.7615  -42.0060 O.2       2 UNK        -0.4875 
     22 CA         16.4938  -24.4383  -44.3034 C.3       2 UNK         0.0481 
     23 CB         16.5050  -22.9143  -44.0632 C.3       2 UNK        -0.1831 
     24 N          17.6016  -24.8123  -45.2013 N.am      2 UNK        -0.4498 
     25 C          18.9178  -24.8097  -44.9272 C.2       1 UNK         0.5027 
     26 O          19.3923  -24.4860  -43.8391 O.2       1 UNK        -0.4969 
     27 C          18.2826  -26.4635  -40.7061 C.2       3 UNK         0.5005 
     28 O          18.2586  -26.8368  -39.5320 O.2       3 UNK        -0.5279 
     29 N          19.0443  -25.4482  -41.1369 N.am      4 UNK        -0.4463 
     30 CA         19.9913  -24.6756  -40.3375 C.3       4 UNK         0.0283 
     31 CB         19.6171  -23.1843  -40.4268 C.3       4 UNK        -0.1875 
     32 C          21.4043  -24.9692  -40.8639 C.2       4 UNK         0.4949 
     33 O          22.1211  -24.0584  -41.2820 O.2       4 UNK        -0.5039 
     34 N          21.7592  -26.2572  -40.8663 N.am      5 UNK        -0.4663 
     35 CA         23.0214  -26.7986  -41.3598 C.3       5 UNK         0.0242 
     36 CB         22.8106  -27.3253  -42.7915 C.3       5 UNK        -0.1982 
     37 C          23.5052  -27.9020  -40.4084 C.2       5 UNK         0.5017 
     38 O          22.7314  -28.3720  -39.5691 O.2       5 UNK        -0.5012 
     39 N          24.7828  -28.2780  -40.5484 N.am      6 UNK        -0.4439 
     40 CA         25.4616  -29.2902  -39.7346 C.3       6 UNK         0.0297 
     41 CB         26.9595  -29.2859  -40.0844 C.3       6 UNK        -0.2006 
     42 C          24.8804  -30.7021  -39.9204 C.2       6 UNK         0.4892 
     43 O          24.3723  -31.0222  -40.9962 O.2       6 UNK        -0.5089 
     44 N          25.0395  -31.5377  -38.8835 N.am      7 UNK        -0.4243 
     45 CA         24.5454  -32.9197  -38.7828 C.3       7 UNK         0.0196 
     46 CB         24.8315  -33.4447  -37.3658 C.3       7 UNK        -0.2007 
     47 C          25.0792  -33.9071  -39.8413 C.2       7 UNK         0.5020 
     48 O          24.5626  -35.0212  -39.9370 O.2       7 UNK        -0.5147 
     49 N          26.0638  -33.4837  -40.6466 N.am      8 UNK        -0.4734 
     50 CA         26.5774  -34.1846  -41.8290 C.3       8 UNK         0.0238 
     51 CB         27.7505  -33.3797  -42.4122 C.3       8 UNK        -0.1912 
     52 C          25.5165  -34.4585  -42.9164 C.2       8 UNK         0.5038 
     53 O          25.7503  -35.3150  -43.7704 O.2       8 UNK        -0.5046 
     54 N          24.3725  -33.7605  -42.8566 N.am      9 UNK        -0.4200 
     55 CA         23.1567  -34.0659  -43.6246 C.3       9 UNK         0.0839 
     56 C          22.5152  -35.4556  -43.3246 C.2       9 UNK         0.5513 
     57 N          22.8209  -36.1073  -42.2071 N.am      9 UNK        -0.7519 
     58 O          21.7330  -35.9533  -44.1304 O.2       9 UNK        -0.4960 
     59 C59        22.1140  -32.9224  -43.5173 C.3       10 UNK        -0.0876 
     60 S60        21.5050  -32.6309  -41.8158 S.3       10 UNK        -0.2414 
     61 C61        21.1573  -30.8457  -41.8574 C.3       10 UNK         0.0169 
     62 H62        19.0983  -22.1481  -46.2020 H         1 UNK         0.0903 
     63 H63        20.7884  -22.6053  -46.4803 H         1 UNK         0.0903 
     64 H64        19.9844  -21.4941  -47.5738 H         1 UNK         0.0903 
     65 H65        19.1128  -25.5497  -47.9905 H         1 UNK         0.3096 
     66 H66        20.8346  -24.8107  -45.8455 H         1 UNK         0.1121 
     67 H67        20.9368  -27.0640  -46.6329 H         1 UNK         0.0849 
     68 H68        20.3308  -27.1371  -45.0050 H         1 UNK         0.0849 
     69 H69        18.5832  -30.1423  -46.9419 H         1 UNK         0.0865 
     70 H70        20.2121  -29.5976  -46.6411 H         1 UNK         0.0865 
     71 H71        21.1093  -30.0212  -44.4599 H         1 UNK         0.1346 
     72 H72        18.5294  -30.9746  -41.1711 H         1 UNK         0.1412 
     73 H73        16.8534  -29.8257  -44.9495 H         1 UNK         0.1426 
     74 H74        16.1561  -30.9109  -41.3983 H         1 UNK         0.0716 
     75 H75        15.5574  -31.2191  -43.0096 H         1 UNK         0.0716 
     76 H76        16.5259  -28.6366  -40.3785 H         1 UNK         0.0695 
     77 H77        15.5325  -27.2396  -40.7023 H         1 UNK         0.0695 
     78 H78        18.1263  -27.9614  -42.1462 H         1 UNK         0.0983 
     79 H79        17.5463  -26.6925  -43.8077 H         1 UNK         0.3095 
     80 H80        15.5739  -24.6862  -44.8345 H         1 UNK         0.0454 
     81 H81        15.6168  -22.5947  -43.5169 H         1 UNK         0.0851 
     82 H82        16.5175  -22.3638  -45.0037 H         1 UNK         0.0851 
     83 H83        17.3733  -22.6040  -43.4808 H         1 UNK         0.0851 
     84 H84        17.3280  -25.1252  -46.1235 H         1 UNK         0.2976 
     85 H85        19.0417  -25.2169  -42.1283 H         1 UNK         0.3116 
     86 H86        19.9595  -24.9770  -39.2886 H         1 UNK         0.0646 
     87 H87        18.6105  -23.0067  -40.0482 H         1 UNK         0.0847 
     88 H88        19.6559  -22.8197  -41.4544 H         1 UNK         0.0847 
     89 H89        20.2999  -22.5733  -39.8353 H         1 UNK         0.0847 
     90 H90        21.1520  -26.9355  -40.4237 H         1 UNK         0.3040 
     91 H91        23.7839  -26.0161  -41.3700 H         1 UNK         0.1015 
     92 H92        23.7057  -27.8159  -43.1756 H         1 UNK         0.0786 
     93 H93        22.5696  -26.5110  -43.4753 H         1 UNK         0.0786 
     94 H94        21.9940  -28.0451  -42.8380 H         1 UNK         0.0786 
     95 H95        25.3286  -27.8621  -41.2888 H         1 UNK         0.3172 
     96 H96        25.3456  -29.0043  -38.6869 H         1 UNK         0.0595 
     97 H97        27.1313  -29.5582  -41.1269 H         1 UNK         0.0839 
     98 H98        27.5114  -29.9968  -39.4680 H         1 UNK         0.0839 
     99 H99        27.4050  -28.3052  -39.9156 H         1 UNK         0.0839 
    100 H100       25.5055  -31.1815  -38.0610 H         1 UNK         0.2998 
    101 H101       23.4626  -32.8811  -38.9201 H         1 UNK         0.0822 
    102 H102       24.3623  -32.8186  -36.6066 H         1 UNK         0.0787 
    103 H103       24.4395  -34.4544  -37.2339 H         1 UNK         0.0787 
    104 H104       25.9019  -33.4818  -37.1589 H         1 UNK         0.0787 
    105 H105       26.4053  -32.5454  -40.4996 H         1 UNK         0.3055 
    106 H106       26.9513  -35.1563  -41.4994 H         1 UNK         0.1106 
    107 H107       28.5513  -33.2572  -41.6826 H         1 UNK         0.0828 
    108 H108       28.1800  -33.8857  -43.2782 H         1 UNK         0.0828 
    109 H109       27.4358  -32.3873  -42.7378 H         1 UNK         0.0828 
    110 H110       24.2725  -33.0565  -42.1355 H         1 UNK         0.2931 
    111 H111       23.4662  -34.1079  -44.6707 H         1 UNK         0.0412 
    112 H112       23.4435  -35.6970  -41.5199 H         1 UNK         0.3472 
    113 H113       22.4011  -37.0059  -42.0299 H         1 UNK         0.3472 
    114 H114       22.5607  -32.0023  -43.8960 H         1 UNK         0.0970 
    115 H115       21.2565  -33.1205  -44.1633 H         1 UNK         0.0970 
    116 H116       20.9827  -30.4951  -40.8391 H         1 UNK         0.0612 
    117 H117       22.0400  -30.3142  -42.2135 H         1 UNK         0.0612 
@<TRIPOS>BOND
     1    1    2 1    
     2    1   62 1    
     3    1   63 1    
     4    1   64 1    
     5    2    3 2    
     6    2    4 am   BACKBONE|DICT|INTERRES
     7    4    5 1    
     8    4   65 1    
     9    5    6 1    
    10    5   25 1    
    11    5   66 1    
    12    6    7 1    
    13    6   67 1    
    14    6   68 1    
    15    7    8 1    
    16    8    9 1    
    17    8   69 1    
    18    8   70 1    
    19    9   10 ar   
    20    9   14 ar   
    21   10   11 ar   
    22   10   71 1    
    23   11   12 ar   
    24   11   61 1    
    25   12   13 ar   
    26   12   72 1    
    27   13   14 ar   
    28   13   15 1    
    29   14   73 1    
    30   15   16 1    
    31   15   74 1    
    32   15   75 1    
    33   16   17 1    
    34   17   18 1    
    35   17   76 1    
    36   17   77 1    
    37   18   19 1    
    38   18   27 1    
    39   18   78 1    
    40   19   20 am   BACKBONE|DICT|INTERRES
    41   19   79 1    
    42   20   21 2    
    43   20   22 1    
    44   22   23 1    
    45   22   24 1    
    46   22   80 1    
    47   23   81 1    
    48   23   82 1    
    49   23   83 1    
    50   24   25 am   BACKBONE|DICT|INTERRES
    51   24   84 1    
    52   25   26 2    
    53   27   28 2    
    54   27   29 am   BACKBONE|DICT|INTERRES
    55   29   30 1    
    56   29   85 1    
    57   30   31 1    
    58   30   32 1    
    59   30   86 1    
    60   31   87 1    
    61   31   88 1    
    62   31   89 1    
    63   32   33 2    
    64   32   34 am   BACKBONE|DICT|INTERRES
    65   34   35 1    
    66   34   90 1    
    67   35   36 1    
    68   35   37 1    
    69   35   91 1    
    70   36   92 1    
    71   36   93 1    
    72   36   94 1    
    73   37   38 2    
    74   37   39 am   BACKBONE|DICT|INTERRES
    75   39   40 1    
    76   39   95 1    
    77   40   41 1    
    78   40   42 1    
    79   40   96 1    
    80   41   97 1    
    81   41   98 1    
    82   41   99 1    
    83   42   43 2    
    84   42   44 am   BACKBONE|DICT|INTERRES
    85   44   45 1    
    86   44  100 1    
    87   45   46 1    
    88   45   47 1    
    89   45  101 1    
    90   46  102 1    
    91   46  103 1    
    92   46  104 1    
    93   47   48 2    
    94   47   49 am   BACKBONE|DICT|INTERRES
    95   49   50 1    
    96   49  105 1    
    97   50   51 1    
    98   50   52 1    
    99   50  106 1    
   100   51  107 1    
   101   51  108 1    
   102   51  109 1    
   103   52   53 2    
   104   52   54 am   BACKBONE|DICT|INTERRES
   105   54   55 1    
   106   54  110 1    
   107   55   56 1    
   108   55   59 1    
   109   55  111 1    
   110   56   57 am   BACKBONE|DICT|INTERRES
   111   56   58 2    
   112   57  112 1    
   113   57  113 1    
   114   59   60 1    
   115   59  114 1    
   116   59  115 1    
   117   60   61 1    
   118   61  116 1    
   119   61  117 1    
@<TRIPOS>SUBSTRUCTURE
     1 UNK         1 GROUP             0       ****    0 ROOT    
